* NGSPICE file created from bus_arbiter.ext - technology: sky130B

* Black-box entry subcircuit for sky130_fd_sc_hd__tapvpwrvgnd_1 abstract view
.subckt sky130_fd_sc_hd__tapvpwrvgnd_1 VGND VPWR
.ends

* Black-box entry subcircuit for sky130_ef_sc_hd__decap_12 abstract view
.subckt sky130_ef_sc_hd__decap_12 VGND VPWR VPB VNB
.ends

* Black-box entry subcircuit for sky130_fd_sc_hd__decap_6 abstract view
.subckt sky130_fd_sc_hd__decap_6 VGND VNB VPB VPWR
.ends

* Black-box entry subcircuit for sky130_fd_sc_hd__decap_4 abstract view
.subckt sky130_fd_sc_hd__decap_4 VGND VNB VPB VPWR
.ends

* Black-box entry subcircuit for sky130_fd_sc_hd__fill_2 abstract view
.subckt sky130_fd_sc_hd__fill_2 VGND VNB VPB VPWR
.ends

* Black-box entry subcircuit for sky130_fd_sc_hd__decap_8 abstract view
.subckt sky130_fd_sc_hd__decap_8 VGND VNB VPB VPWR
.ends

* Black-box entry subcircuit for sky130_fd_sc_hd__fill_1 abstract view
.subckt sky130_fd_sc_hd__fill_1 VGND VNB VPB VPWR
.ends

* Black-box entry subcircuit for sky130_fd_sc_hd__buf_2 abstract view
.subckt sky130_fd_sc_hd__buf_2 A VGND VNB VPB VPWR X
.ends

* Black-box entry subcircuit for sky130_fd_sc_hd__clkbuf_1 abstract view
.subckt sky130_fd_sc_hd__clkbuf_1 A VGND VNB VPB VPWR X
.ends

* Black-box entry subcircuit for sky130_fd_sc_hd__or2_1 abstract view
.subckt sky130_fd_sc_hd__or2_1 A B VGND VNB VPB VPWR X
.ends

* Black-box entry subcircuit for sky130_fd_sc_hd__clkbuf_2 abstract view
.subckt sky130_fd_sc_hd__clkbuf_2 A VGND VNB VPB VPWR X
.ends

* Black-box entry subcircuit for sky130_fd_sc_hd__buf_4 abstract view
.subckt sky130_fd_sc_hd__buf_4 A VGND VNB VPB VPWR X
.ends

* Black-box entry subcircuit for sky130_fd_sc_hd__decap_3 abstract view
.subckt sky130_fd_sc_hd__decap_3 VGND VNB VPB VPWR
.ends

* Black-box entry subcircuit for sky130_fd_sc_hd__a31o_1 abstract view
.subckt sky130_fd_sc_hd__a31o_1 A1 A2 A3 B1 VGND VNB VPB VPWR X
.ends

* Black-box entry subcircuit for sky130_fd_sc_hd__diode_2 abstract view
.subckt sky130_fd_sc_hd__diode_2 DIODE VGND VNB VPB VPWR
.ends

* Black-box entry subcircuit for sky130_fd_sc_hd__dlymetal6s2s_1 abstract view
.subckt sky130_fd_sc_hd__dlymetal6s2s_1 A VGND VNB VPB VPWR X
.ends

* Black-box entry subcircuit for sky130_fd_sc_hd__and2b_1 abstract view
.subckt sky130_fd_sc_hd__and2b_1 A_N B VGND VNB VPB VPWR X
.ends

* Black-box entry subcircuit for sky130_fd_sc_hd__mux2_1 abstract view
.subckt sky130_fd_sc_hd__mux2_1 A0 A1 S VGND VNB VPB VPWR X
.ends

* Black-box entry subcircuit for sky130_fd_sc_hd__inv_2 abstract view
.subckt sky130_fd_sc_hd__inv_2 A VGND VNB VPB VPWR Y
.ends

* Black-box entry subcircuit for sky130_fd_sc_hd__a21oi_1 abstract view
.subckt sky130_fd_sc_hd__a21oi_1 A1 A2 B1 VGND VNB VPB VPWR Y
.ends

* Black-box entry subcircuit for sky130_fd_sc_hd__clkbuf_4 abstract view
.subckt sky130_fd_sc_hd__clkbuf_4 A VGND VNB VPB VPWR X
.ends

* Black-box entry subcircuit for sky130_fd_sc_hd__or2b_1 abstract view
.subckt sky130_fd_sc_hd__or2b_1 A B_N VGND VNB VPB VPWR X
.ends

* Black-box entry subcircuit for sky130_fd_sc_hd__clkbuf_16 abstract view
.subckt sky130_fd_sc_hd__clkbuf_16 A VGND VNB VPB VPWR X
.ends

* Black-box entry subcircuit for sky130_fd_sc_hd__dfxtp_1 abstract view
.subckt sky130_fd_sc_hd__dfxtp_1 CLK D VGND VNB VPB VPWR Q
.ends

* Black-box entry subcircuit for sky130_fd_sc_hd__nand2_1 abstract view
.subckt sky130_fd_sc_hd__nand2_1 A B VGND VNB VPB VPWR Y
.ends

* Black-box entry subcircuit for sky130_fd_sc_hd__conb_1 abstract view
.subckt sky130_fd_sc_hd__conb_1 VGND VNB VPB VPWR HI LO
.ends

* Black-box entry subcircuit for sky130_fd_sc_hd__and4bb_1 abstract view
.subckt sky130_fd_sc_hd__and4bb_1 A_N B_N C D VGND VNB VPB VPWR X
.ends

* Black-box entry subcircuit for sky130_fd_sc_hd__or3_1 abstract view
.subckt sky130_fd_sc_hd__or3_1 A B C VGND VNB VPB VPWR X
.ends

* Black-box entry subcircuit for sky130_fd_sc_hd__and2_1 abstract view
.subckt sky130_fd_sc_hd__and2_1 A B VGND VNB VPB VPWR X
.ends

* Black-box entry subcircuit for sky130_fd_sc_hd__and3_1 abstract view
.subckt sky130_fd_sc_hd__and3_1 A B C VGND VNB VPB VPWR X
.ends

.subckt bus_arbiter clk m2_dcache_wbd_ack_o m2_dcache_wbd_adr_i[0] m2_dcache_wbd_adr_i[10]
+ m2_dcache_wbd_adr_i[11] m2_dcache_wbd_adr_i[12] m2_dcache_wbd_adr_i[13] m2_dcache_wbd_adr_i[14]
+ m2_dcache_wbd_adr_i[15] m2_dcache_wbd_adr_i[16] m2_dcache_wbd_adr_i[17] m2_dcache_wbd_adr_i[18]
+ m2_dcache_wbd_adr_i[19] m2_dcache_wbd_adr_i[1] m2_dcache_wbd_adr_i[20] m2_dcache_wbd_adr_i[21]
+ m2_dcache_wbd_adr_i[22] m2_dcache_wbd_adr_i[23] m2_dcache_wbd_adr_i[24] m2_dcache_wbd_adr_i[25]
+ m2_dcache_wbd_adr_i[26] m2_dcache_wbd_adr_i[27] m2_dcache_wbd_adr_i[28] m2_dcache_wbd_adr_i[29]
+ m2_dcache_wbd_adr_i[2] m2_dcache_wbd_adr_i[30] m2_dcache_wbd_adr_i[31] m2_dcache_wbd_adr_i[3]
+ m2_dcache_wbd_adr_i[4] m2_dcache_wbd_adr_i[5] m2_dcache_wbd_adr_i[6] m2_dcache_wbd_adr_i[7]
+ m2_dcache_wbd_adr_i[8] m2_dcache_wbd_adr_i[9] m2_dcache_wbd_cyc_i m2_dcache_wbd_dat_i[0]
+ m2_dcache_wbd_dat_i[10] m2_dcache_wbd_dat_i[11] m2_dcache_wbd_dat_i[12] m2_dcache_wbd_dat_i[13]
+ m2_dcache_wbd_dat_i[14] m2_dcache_wbd_dat_i[15] m2_dcache_wbd_dat_i[16] m2_dcache_wbd_dat_i[17]
+ m2_dcache_wbd_dat_i[18] m2_dcache_wbd_dat_i[19] m2_dcache_wbd_dat_i[1] m2_dcache_wbd_dat_i[20]
+ m2_dcache_wbd_dat_i[21] m2_dcache_wbd_dat_i[22] m2_dcache_wbd_dat_i[23] m2_dcache_wbd_dat_i[24]
+ m2_dcache_wbd_dat_i[25] m2_dcache_wbd_dat_i[26] m2_dcache_wbd_dat_i[27] m2_dcache_wbd_dat_i[28]
+ m2_dcache_wbd_dat_i[29] m2_dcache_wbd_dat_i[2] m2_dcache_wbd_dat_i[30] m2_dcache_wbd_dat_i[31]
+ m2_dcache_wbd_dat_i[3] m2_dcache_wbd_dat_i[4] m2_dcache_wbd_dat_i[5] m2_dcache_wbd_dat_i[6]
+ m2_dcache_wbd_dat_i[7] m2_dcache_wbd_dat_i[8] m2_dcache_wbd_dat_i[9] m2_dcache_wbd_dat_o[0]
+ m2_dcache_wbd_dat_o[10] m2_dcache_wbd_dat_o[11] m2_dcache_wbd_dat_o[12] m2_dcache_wbd_dat_o[13]
+ m2_dcache_wbd_dat_o[14] m2_dcache_wbd_dat_o[15] m2_dcache_wbd_dat_o[16] m2_dcache_wbd_dat_o[17]
+ m2_dcache_wbd_dat_o[18] m2_dcache_wbd_dat_o[19] m2_dcache_wbd_dat_o[1] m2_dcache_wbd_dat_o[20]
+ m2_dcache_wbd_dat_o[21] m2_dcache_wbd_dat_o[22] m2_dcache_wbd_dat_o[23] m2_dcache_wbd_dat_o[24]
+ m2_dcache_wbd_dat_o[25] m2_dcache_wbd_dat_o[26] m2_dcache_wbd_dat_o[27] m2_dcache_wbd_dat_o[28]
+ m2_dcache_wbd_dat_o[29] m2_dcache_wbd_dat_o[2] m2_dcache_wbd_dat_o[30] m2_dcache_wbd_dat_o[31]
+ m2_dcache_wbd_dat_o[3] m2_dcache_wbd_dat_o[4] m2_dcache_wbd_dat_o[5] m2_dcache_wbd_dat_o[6]
+ m2_dcache_wbd_dat_o[7] m2_dcache_wbd_dat_o[8] m2_dcache_wbd_dat_o[9] m2_dcache_wbd_sel_i[0]
+ m2_dcache_wbd_sel_i[1] m2_dcache_wbd_sel_i[2] m2_dcache_wbd_sel_i[3] m2_dcache_wbd_stb_i
+ m2_dcache_wbd_we_i m2_others_wbd_ack_o m2_others_wbd_adr_i[0] m2_others_wbd_adr_i[10]
+ m2_others_wbd_adr_i[11] m2_others_wbd_adr_i[12] m2_others_wbd_adr_i[13] m2_others_wbd_adr_i[14]
+ m2_others_wbd_adr_i[15] m2_others_wbd_adr_i[16] m2_others_wbd_adr_i[17] m2_others_wbd_adr_i[18]
+ m2_others_wbd_adr_i[19] m2_others_wbd_adr_i[1] m2_others_wbd_adr_i[20] m2_others_wbd_adr_i[21]
+ m2_others_wbd_adr_i[22] m2_others_wbd_adr_i[23] m2_others_wbd_adr_i[24] m2_others_wbd_adr_i[25]
+ m2_others_wbd_adr_i[26] m2_others_wbd_adr_i[27] m2_others_wbd_adr_i[28] m2_others_wbd_adr_i[29]
+ m2_others_wbd_adr_i[2] m2_others_wbd_adr_i[30] m2_others_wbd_adr_i[31] m2_others_wbd_adr_i[3]
+ m2_others_wbd_adr_i[4] m2_others_wbd_adr_i[5] m2_others_wbd_adr_i[6] m2_others_wbd_adr_i[7]
+ m2_others_wbd_adr_i[8] m2_others_wbd_adr_i[9] m2_others_wbd_cyc_i m2_others_wbd_dat_i[0]
+ m2_others_wbd_dat_i[10] m2_others_wbd_dat_i[11] m2_others_wbd_dat_i[12] m2_others_wbd_dat_i[13]
+ m2_others_wbd_dat_i[14] m2_others_wbd_dat_i[15] m2_others_wbd_dat_i[16] m2_others_wbd_dat_i[17]
+ m2_others_wbd_dat_i[18] m2_others_wbd_dat_i[19] m2_others_wbd_dat_i[1] m2_others_wbd_dat_i[20]
+ m2_others_wbd_dat_i[21] m2_others_wbd_dat_i[22] m2_others_wbd_dat_i[23] m2_others_wbd_dat_i[24]
+ m2_others_wbd_dat_i[25] m2_others_wbd_dat_i[26] m2_others_wbd_dat_i[27] m2_others_wbd_dat_i[28]
+ m2_others_wbd_dat_i[29] m2_others_wbd_dat_i[2] m2_others_wbd_dat_i[30] m2_others_wbd_dat_i[31]
+ m2_others_wbd_dat_i[3] m2_others_wbd_dat_i[4] m2_others_wbd_dat_i[5] m2_others_wbd_dat_i[6]
+ m2_others_wbd_dat_i[7] m2_others_wbd_dat_i[8] m2_others_wbd_dat_i[9] m2_others_wbd_dat_o[0]
+ m2_others_wbd_dat_o[10] m2_others_wbd_dat_o[11] m2_others_wbd_dat_o[12] m2_others_wbd_dat_o[13]
+ m2_others_wbd_dat_o[14] m2_others_wbd_dat_o[15] m2_others_wbd_dat_o[16] m2_others_wbd_dat_o[17]
+ m2_others_wbd_dat_o[18] m2_others_wbd_dat_o[19] m2_others_wbd_dat_o[1] m2_others_wbd_dat_o[20]
+ m2_others_wbd_dat_o[21] m2_others_wbd_dat_o[22] m2_others_wbd_dat_o[23] m2_others_wbd_dat_o[24]
+ m2_others_wbd_dat_o[25] m2_others_wbd_dat_o[26] m2_others_wbd_dat_o[27] m2_others_wbd_dat_o[28]
+ m2_others_wbd_dat_o[29] m2_others_wbd_dat_o[2] m2_others_wbd_dat_o[30] m2_others_wbd_dat_o[31]
+ m2_others_wbd_dat_o[3] m2_others_wbd_dat_o[4] m2_others_wbd_dat_o[5] m2_others_wbd_dat_o[6]
+ m2_others_wbd_dat_o[7] m2_others_wbd_dat_o[8] m2_others_wbd_dat_o[9] m2_others_wbd_sel_i[0]
+ m2_others_wbd_sel_i[1] m2_others_wbd_sel_i[2] m2_others_wbd_sel_i[3] m2_others_wbd_stb_i
+ m2_others_wbd_we_i m2_wbd_ack_i m2_wbd_adr_o[0] m2_wbd_adr_o[10] m2_wbd_adr_o[11]
+ m2_wbd_adr_o[12] m2_wbd_adr_o[13] m2_wbd_adr_o[14] m2_wbd_adr_o[15] m2_wbd_adr_o[16]
+ m2_wbd_adr_o[17] m2_wbd_adr_o[18] m2_wbd_adr_o[19] m2_wbd_adr_o[1] m2_wbd_adr_o[20]
+ m2_wbd_adr_o[21] m2_wbd_adr_o[22] m2_wbd_adr_o[23] m2_wbd_adr_o[24] m2_wbd_adr_o[25]
+ m2_wbd_adr_o[26] m2_wbd_adr_o[27] m2_wbd_adr_o[28] m2_wbd_adr_o[29] m2_wbd_adr_o[2]
+ m2_wbd_adr_o[30] m2_wbd_adr_o[31] m2_wbd_adr_o[3] m2_wbd_adr_o[4] m2_wbd_adr_o[5]
+ m2_wbd_adr_o[6] m2_wbd_adr_o[7] m2_wbd_adr_o[8] m2_wbd_adr_o[9] m2_wbd_bl_o[0] m2_wbd_bl_o[1]
+ m2_wbd_bl_o[2] m2_wbd_bl_o[3] m2_wbd_bl_o[4] m2_wbd_bl_o[5] m2_wbd_bl_o[6] m2_wbd_bl_o[7]
+ m2_wbd_bl_o[8] m2_wbd_bl_o[9] m2_wbd_bry_o m2_wbd_cyc_o m2_wbd_dat_i[0] m2_wbd_dat_i[10]
+ m2_wbd_dat_i[11] m2_wbd_dat_i[12] m2_wbd_dat_i[13] m2_wbd_dat_i[14] m2_wbd_dat_i[15]
+ m2_wbd_dat_i[16] m2_wbd_dat_i[17] m2_wbd_dat_i[18] m2_wbd_dat_i[19] m2_wbd_dat_i[1]
+ m2_wbd_dat_i[20] m2_wbd_dat_i[21] m2_wbd_dat_i[22] m2_wbd_dat_i[23] m2_wbd_dat_i[24]
+ m2_wbd_dat_i[25] m2_wbd_dat_i[26] m2_wbd_dat_i[27] m2_wbd_dat_i[28] m2_wbd_dat_i[29]
+ m2_wbd_dat_i[2] m2_wbd_dat_i[30] m2_wbd_dat_i[31] m2_wbd_dat_i[3] m2_wbd_dat_i[4]
+ m2_wbd_dat_i[5] m2_wbd_dat_i[6] m2_wbd_dat_i[7] m2_wbd_dat_i[8] m2_wbd_dat_i[9]
+ m2_wbd_dat_o[0] m2_wbd_dat_o[10] m2_wbd_dat_o[11] m2_wbd_dat_o[12] m2_wbd_dat_o[13]
+ m2_wbd_dat_o[14] m2_wbd_dat_o[15] m2_wbd_dat_o[16] m2_wbd_dat_o[17] m2_wbd_dat_o[18]
+ m2_wbd_dat_o[19] m2_wbd_dat_o[1] m2_wbd_dat_o[20] m2_wbd_dat_o[21] m2_wbd_dat_o[22]
+ m2_wbd_dat_o[23] m2_wbd_dat_o[24] m2_wbd_dat_o[25] m2_wbd_dat_o[26] m2_wbd_dat_o[27]
+ m2_wbd_dat_o[28] m2_wbd_dat_o[29] m2_wbd_dat_o[2] m2_wbd_dat_o[30] m2_wbd_dat_o[31]
+ m2_wbd_dat_o[3] m2_wbd_dat_o[4] m2_wbd_dat_o[5] m2_wbd_dat_o[6] m2_wbd_dat_o[7]
+ m2_wbd_dat_o[8] m2_wbd_dat_o[9] m2_wbd_sel_o[0] m2_wbd_sel_o[1] m2_wbd_sel_o[2]
+ m2_wbd_sel_o[3] m2_wbd_stb_o m2_wbd_we_o reset vccd1 vssd1
XTAP_199 vssd1 vccd1 sky130_fd_sc_hd__tapvpwrvgnd_1
XTAP_188 vssd1 vccd1 sky130_fd_sc_hd__tapvpwrvgnd_1
XTAP_177 vssd1 vccd1 sky130_fd_sc_hd__tapvpwrvgnd_1
XFILLER_27_417 vssd1 vccd1 vccd1 vssd1 sky130_ef_sc_hd__decap_12
XFILLER_39_1101 vssd1 vccd1 vccd1 vssd1 sky130_ef_sc_hd__decap_12
XFILLER_36_973 vssd1 vssd1 vccd1 vccd1 sky130_fd_sc_hd__decap_6
XFILLER_39_1145 vssd1 vccd1 vccd1 vssd1 sky130_ef_sc_hd__decap_12
XFILLER_35_461 vssd1 vccd1 vccd1 vssd1 sky130_ef_sc_hd__decap_12
XFILLER_23_601 vssd1 vccd1 vccd1 vssd1 sky130_ef_sc_hd__decap_12
XFILLER_39_1189 vssd1 vccd1 vccd1 vssd1 sky130_ef_sc_hd__decap_12
XFILLER_35_1009 vssd1 vccd1 vccd1 vssd1 sky130_ef_sc_hd__decap_12
XFILLER_22_133 vssd1 vssd1 vccd1 vccd1 sky130_fd_sc_hd__decap_6
XFILLER_23_689 vssd1 vssd1 vccd1 vccd1 sky130_fd_sc_hd__decap_4
XFILLER_22_177 vssd1 vccd1 vccd1 vssd1 sky130_ef_sc_hd__decap_12
XFILLER_46_1105 vssd1 vssd1 vccd1 vccd1 sky130_fd_sc_hd__decap_4
XFILLER_46_1149 vssd1 vssd1 vccd1 vccd1 sky130_fd_sc_hd__decap_4
XFILLER_46_726 vssd1 vssd1 vccd1 vccd1 sky130_fd_sc_hd__fill_2
XFILLER_46_704 vssd1 vssd1 vccd1 vccd1 sky130_fd_sc_hd__decap_4
XFILLER_45_225 vssd1 vccd1 vccd1 vssd1 sky130_ef_sc_hd__decap_12
XFILLER_45_214 vssd1 vssd1 vccd1 vccd1 sky130_fd_sc_hd__decap_8
XFILLER_2_1265 vssd1 vssd1 vccd1 vccd1 sky130_fd_sc_hd__decap_4
XFILLER_26_41 vssd1 vccd1 vccd1 vssd1 sky130_ef_sc_hd__decap_12
XFILLER_27_951 vssd1 vssd1 vccd1 vccd1 sky130_fd_sc_hd__fill_1
XFILLER_14_601 vssd1 vccd1 vccd1 vssd1 sky130_ef_sc_hd__decap_12
XFILLER_13_111 vssd1 vssd1 vccd1 vccd1 sky130_fd_sc_hd__fill_1
XFILLER_14_645 vssd1 vccd1 vccd1 vssd1 sky130_ef_sc_hd__decap_12
XFILLER_18_1229 vssd1 vccd1 vccd1 vssd1 sky130_ef_sc_hd__decap_12
XFILLER_26_85 vssd1 vccd1 vccd1 vssd1 sky130_ef_sc_hd__decap_12
X_363_ _363_/A vssd1 vssd1 vccd1 vccd1 _363_/X sky130_fd_sc_hd__buf_2
XFILLER_41_497 vssd1 vssd1 vccd1 vccd1 sky130_fd_sc_hd__decap_6
XFILLER_9_137 vssd1 vccd1 vccd1 vssd1 sky130_ef_sc_hd__decap_12
XFILLER_6_811 vssd1 vssd1 vccd1 vccd1 sky130_fd_sc_hd__fill_1
XFILLER_10_840 vssd1 vccd1 vccd1 vssd1 sky130_ef_sc_hd__decap_12
XFILLER_7_1121 vssd1 vccd1 vccd1 vssd1 sky130_ef_sc_hd__decap_12
XFILLER_3_1007 vssd1 vssd1 vccd1 vccd1 sky130_fd_sc_hd__fill_1
XFILLER_18_973 vssd1 vssd1 vccd1 vccd1 sky130_fd_sc_hd__decap_6
XFILLER_17_461 vssd1 vccd1 vccd1 vssd1 sky130_ef_sc_hd__decap_12
XFILLER_33_943 vssd1 vssd1 vccd1 vccd1 sky130_fd_sc_hd__decap_8
XFILLER_33_965 vssd1 vccd1 vccd1 vssd1 sky130_ef_sc_hd__decap_12
XFILLER_32_475 vssd1 vssd1 vccd1 vccd1 sky130_fd_sc_hd__fill_1
XFILLER_20_637 vssd1 vssd1 vccd1 vccd1 sky130_fd_sc_hd__decap_6
XFILLER_9_671 vssd1 vssd1 vccd1 vccd1 sky130_fd_sc_hd__fill_1
XFILLER_45_1160 vssd1 vccd1 vccd1 vssd1 sky130_ef_sc_hd__decap_12
XFILLER_41_1057 vssd1 vssd1 vccd1 vccd1 sky130_fd_sc_hd__decap_6
XFILLER_27_225 vssd1 vccd1 vccd1 vssd1 sky130_ef_sc_hd__decap_12
XFILLER_28_737 vssd1 vccd1 vccd1 vssd1 sky130_ef_sc_hd__decap_12
XTAP_1129 vssd1 vccd1 sky130_fd_sc_hd__tapvpwrvgnd_1
XTAP_1118 vssd1 vccd1 sky130_fd_sc_hd__tapvpwrvgnd_1
XTAP_1107 vssd1 vccd1 sky130_fd_sc_hd__tapvpwrvgnd_1
XFILLER_43_729 vssd1 vccd1 vccd1 vssd1 sky130_ef_sc_hd__decap_12
XFILLER_36_781 vssd1 vccd1 vccd1 vssd1 sky130_ef_sc_hd__decap_12
XFILLER_11_615 vssd1 vssd1 vccd1 vccd1 sky130_fd_sc_hd__fill_1
XFILLER_23_497 vssd1 vssd1 vccd1 vccd1 sky130_fd_sc_hd__decap_6
XFILLER_17_1273 vssd1 vssd1 vccd1 vccd1 sky130_fd_sc_hd__decap_4
XFILLER_12_65 vssd1 vccd1 vccd1 vssd1 sky130_ef_sc_hd__decap_12
XFILLER_2_346 vssd1 vccd1 vccd1 vssd1 sky130_ef_sc_hd__decap_12
XFILLER_37_51 vssd1 vssd1 vccd1 vccd1 sky130_fd_sc_hd__decap_4
XFILLER_46_567 vssd1 vssd1 vccd1 vccd1 sky130_fd_sc_hd__fill_2
XFILLER_46_556 vssd1 vssd1 vccd1 vccd1 sky130_fd_sc_hd__decap_4
XFILLER_46_545 vssd1 vssd1 vccd1 vccd1 sky130_fd_sc_hd__decap_8
XFILLER_46_589 vssd1 vssd1 vccd1 vccd1 sky130_fd_sc_hd__fill_2
XFILLER_2_1073 vssd1 vccd1 vccd1 vssd1 sky130_ef_sc_hd__decap_12
XFILLER_15_921 vssd1 vccd1 vccd1 vssd1 sky130_ef_sc_hd__decap_12
XFILLER_33_217 vssd1 vssd1 vccd1 vccd1 sky130_fd_sc_hd__decap_6
XFILLER_15_965 vssd1 vccd1 vccd1 vssd1 sky130_ef_sc_hd__decap_12
XFILLER_18_1037 vssd1 vccd1 vccd1 vssd1 sky130_ef_sc_hd__decap_12
XFILLER_41_261 vssd1 vccd1 vccd1 vssd1 sky130_ef_sc_hd__decap_12
XFILLER_14_475 vssd1 vssd1 vccd1 vccd1 sky130_fd_sc_hd__fill_1
X_346_ _346_/A vssd1 vssd1 vccd1 vccd1 _346_/X sky130_fd_sc_hd__clkbuf_1
XFILLER_30_979 vssd1 vssd1 vccd1 vccd1 sky130_fd_sc_hd__fill_1
X_277_ _277_/A _277_/B vssd1 vssd1 vccd1 vccd1 _278_/A sky130_fd_sc_hd__or2_1
XFILLER_10_681 vssd1 vccd1 vccd1 vssd1 sky130_ef_sc_hd__decap_12
XFILLER_29_1133 vssd1 vccd1 vccd1 vssd1 sky130_ef_sc_hd__decap_12
XFILLER_29_1177 vssd1 vccd1 vccd1 vssd1 sky130_ef_sc_hd__decap_12
XFILLER_18_781 vssd1 vccd1 vccd1 vssd1 sky130_ef_sc_hd__decap_12
XFILLER_33_773 vssd1 vssd1 vccd1 vccd1 sky130_fd_sc_hd__decap_8
XFILLER_20_401 vssd1 vccd1 vccd1 vssd1 sky130_ef_sc_hd__decap_12
XFILLER_20_445 vssd1 vccd1 vccd1 vssd1 sky130_ef_sc_hd__decap_12
XFILLER_20_489 vssd1 vccd1 vccd1 vssd1 sky130_ef_sc_hd__decap_12
Xoutput220 _348_/X vssd1 vssd1 vccd1 vccd1 m2_others_wbd_dat_o[18] sky130_fd_sc_hd__clkbuf_1
Xoutput253 _239_/X vssd1 vssd1 vccd1 vccd1 m2_wbd_adr_o[19] sky130_fd_sc_hd__clkbuf_1
Xoutput242 _339_/X vssd1 vssd1 vccd1 vccd1 m2_others_wbd_dat_o[9] sky130_fd_sc_hd__clkbuf_1
Xoutput231 _358_/X vssd1 vssd1 vccd1 vccd1 m2_others_wbd_dat_o[28] sky130_fd_sc_hd__clkbuf_1
Xoutput286 _163_/X vssd1 vssd1 vccd1 vccd1 m2_wbd_dat_o[17] sky130_fd_sc_hd__clkbuf_1
Xoutput275 _363_/A vssd1 vssd1 vccd1 vccd1 m2_wbd_bl_o[0] sky130_fd_sc_hd__clkbuf_1
Xoutput264 _261_/X vssd1 vssd1 vccd1 vccd1 m2_wbd_adr_o[29] sky130_fd_sc_hd__clkbuf_1
Xoutput297 _186_/X vssd1 vssd1 vccd1 vccd1 m2_wbd_dat_o[27] sky130_fd_sc_hd__clkbuf_1
XFILLER_43_1119 vssd1 vssd1 vccd1 vccd1 sky130_fd_sc_hd__fill_1
XFILLER_28_501 vssd1 vccd1 vccd1 vssd1 sky130_ef_sc_hd__decap_12
XFILLER_28_545 vssd1 vccd1 vccd1 vssd1 sky130_ef_sc_hd__decap_12
XFILLER_15_217 vssd1 vssd1 vccd1 vccd1 sky130_fd_sc_hd__decap_6
XFILLER_28_589 vssd1 vccd1 vccd1 vssd1 sky130_ef_sc_hd__decap_12
XFILLER_43_559 vssd1 vssd1 vccd1 vccd1 sky130_fd_sc_hd__fill_1
XFILLER_30_209 vssd1 vccd1 vccd1 vssd1 sky130_ef_sc_hd__decap_12
X_200_ _200_/A vssd1 vssd1 vccd1 vccd1 _200_/X sky130_fd_sc_hd__clkbuf_2
XFILLER_23_261 vssd1 vccd1 vccd1 vssd1 sky130_ef_sc_hd__decap_12
XFILLER_7_405 vssd1 vccd1 vccd1 vssd1 sky130_ef_sc_hd__decap_12
XFILLER_8_917 vssd1 vssd1 vccd1 vccd1 sky130_fd_sc_hd__decap_6
XFILLER_12_979 vssd1 vssd1 vccd1 vccd1 sky130_fd_sc_hd__fill_1
X_131_ _275_/S vssd1 vssd1 vccd1 vccd1 _140_/S sky130_fd_sc_hd__buf_4
XFILLER_7_449 vssd1 vccd1 vccd1 vssd1 sky130_ef_sc_hd__decap_12
XFILLER_2_121 vssd1 vccd1 vccd1 vssd1 sky130_ef_sc_hd__decap_12
XFILLER_2_165 vssd1 vccd1 vccd1 vssd1 sky130_ef_sc_hd__decap_12
XFILLER_38_309 vssd1 vccd1 vccd1 vssd1 sky130_ef_sc_hd__decap_12
XFILLER_0_13 vssd1 vssd1 vccd1 vccd1 sky130_fd_sc_hd__decap_4
XFILLER_24_1085 vssd1 vssd1 vccd1 vccd1 sky130_fd_sc_hd__decap_6
XFILLER_46_375 vssd1 vssd1 vccd1 vccd1 sky130_fd_sc_hd__fill_2
XFILLER_0_57 vssd1 vssd1 vccd1 vccd1 sky130_fd_sc_hd__decap_3
XFILLER_42_581 vssd1 vssd1 vccd1 vccd1 sky130_fd_sc_hd__decap_6
XFILLER_9_55 vssd1 vssd1 vccd1 vccd1 sky130_fd_sc_hd__fill_1
X_329_ _361_/A vssd1 vssd1 vccd1 vccd1 _329_/X sky130_fd_sc_hd__clkbuf_1
XFILLER_31_1001 vssd1 vssd1 vccd1 vccd1 sky130_fd_sc_hd__decap_6
XFILLER_31_1045 vssd1 vccd1 vccd1 vssd1 sky130_ef_sc_hd__decap_12
XFILLER_31_1089 vssd1 vccd1 vccd1 vssd1 sky130_ef_sc_hd__decap_12
XFILLER_9_1057 vssd1 vssd1 vccd1 vccd1 sky130_fd_sc_hd__decap_6
XFILLER_42_1141 vssd1 vssd1 vccd1 vccd1 sky130_fd_sc_hd__decap_6
XFILLER_42_1185 vssd1 vccd1 vccd1 vssd1 sky130_ef_sc_hd__decap_12
XFILLER_25_559 vssd1 vssd1 vccd1 vccd1 sky130_fd_sc_hd__fill_1
XFILLER_12_209 vssd1 vccd1 vccd1 vssd1 sky130_ef_sc_hd__decap_12
XFILLER_14_1221 vssd1 vssd1 vccd1 vccd1 sky130_fd_sc_hd__fill_1
XFILLER_20_253 vssd1 vccd1 vccd1 vssd1 sky130_ef_sc_hd__decap_12
XFILLER_5_909 vssd1 vccd1 vccd1 vssd1 sky130_ef_sc_hd__decap_12
XFILLER_4_419 vssd1 vssd1 vccd1 vccd1 sky130_fd_sc_hd__fill_1
XFILLER_10_1129 vssd1 vccd1 vccd1 vssd1 sky130_ef_sc_hd__decap_12
XFILLER_0_636 vssd1 vssd1 vccd1 vccd1 sky130_fd_sc_hd__decap_8
XFILLER_29_821 vssd1 vccd1 vccd1 vssd1 sky130_ef_sc_hd__decap_12
XFILLER_18_53 vssd1 vccd1 vccd1 vssd1 sky130_ef_sc_hd__decap_12
XFILLER_21_1225 vssd1 vssd1 vccd1 vccd1 sky130_fd_sc_hd__decap_6
XFILLER_29_865 vssd1 vccd1 vccd1 vssd1 sky130_ef_sc_hd__decap_12
XFILLER_44_813 vssd1 vssd1 vccd1 vccd1 sky130_fd_sc_hd__decap_6
XFILLER_44_857 vssd1 vssd1 vccd1 vccd1 sky130_fd_sc_hd__decap_8
XFILLER_18_97 vssd1 vccd1 vccd1 vssd1 sky130_ef_sc_hd__decap_12
XFILLER_19_1121 vssd1 vccd1 vccd1 vssd1 sky130_ef_sc_hd__decap_12
XFILLER_24_581 vssd1 vssd1 vccd1 vccd1 sky130_fd_sc_hd__decap_6
XFILLER_31_529 vssd1 vccd1 vccd1 vssd1 sky130_ef_sc_hd__decap_12
XFILLER_34_41 vssd1 vccd1 vccd1 vssd1 sky130_ef_sc_hd__decap_12
XFILLER_15_1007 vssd1 vssd1 vccd1 vccd1 sky130_fd_sc_hd__fill_1
XFILLER_19_1165 vssd1 vssd1 vccd1 vccd1 sky130_fd_sc_hd__decap_8
XFILLER_34_85 vssd1 vccd1 vccd1 vssd1 sky130_ef_sc_hd__decap_12
XFILLER_8_725 vssd1 vccd1 vccd1 vssd1 sky130_ef_sc_hd__decap_12
XFILLER_8_769 vssd1 vccd1 vccd1 vssd1 sky130_ef_sc_hd__decap_12
X_114_ _288_/Q _281_/B _287_/Q _113_/X vssd1 vssd1 vccd1 vccd1 _115_/C sky130_fd_sc_hd__a31o_1
XFILLER_7_279 vssd1 vssd1 vccd1 vccd1 sky130_fd_sc_hd__fill_1
XFILLER_3_441 vssd1 vssd1 vccd1 vccd1 sky130_fd_sc_hd__decap_6
XTAP_507 vssd1 vccd1 sky130_fd_sc_hd__tapvpwrvgnd_1
XFILLER_3_485 vssd1 vccd1 vccd1 vssd1 sky130_ef_sc_hd__decap_12
XTAP_518 vssd1 vccd1 sky130_fd_sc_hd__tapvpwrvgnd_1
XTAP_529 vssd1 vccd1 sky130_fd_sc_hd__tapvpwrvgnd_1
XFILLER_26_1147 vssd1 vssd1 vccd1 vccd1 sky130_fd_sc_hd__fill_1
XFILLER_39_629 vssd1 vccd1 vccd1 vssd1 sky130_ef_sc_hd__decap_12
XFILLER_38_139 vssd1 vssd1 vccd1 vccd1 sky130_fd_sc_hd__fill_1
XFILLER_15_6 vssd1 vccd1 vccd1 vssd1 sky130_ef_sc_hd__decap_12
XFILLER_19_364 vssd1 vccd1 vccd1 vssd1 sky130_ef_sc_hd__decap_12
XFILLER_34_301 vssd1 vssd1 vccd1 vccd1 sky130_fd_sc_hd__decap_6
XFILLER_34_345 vssd1 vccd1 vccd1 vssd1 sky130_ef_sc_hd__decap_12
XFILLER_34_389 vssd1 vccd1 vccd1 vssd1 sky130_ef_sc_hd__decap_12
XFILLER_44_1203 vssd1 vssd1 vccd1 vccd1 sky130_fd_sc_hd__fill_1
XFILLER_44_109 vssd1 vccd1 vccd1 vssd1 sky130_ef_sc_hd__decap_12
XFILLER_26_813 vssd1 vccd1 vccd1 vssd1 sky130_ef_sc_hd__decap_12
XFILLER_37_161 vssd1 vssd1 vccd1 vccd1 sky130_fd_sc_hd__decap_6
XFILLER_38_1029 vssd1 vssd1 vccd1 vccd1 sky130_fd_sc_hd__decap_6
XFILLER_26_879 vssd1 vssd1 vccd1 vccd1 sky130_fd_sc_hd__fill_2
XFILLER_13_529 vssd1 vccd1 vccd1 vssd1 sky130_ef_sc_hd__decap_12
XFILLER_21_573 vssd1 vccd1 vccd1 vssd1 sky130_ef_sc_hd__decap_12
XFILLER_14_1073 vssd1 vccd1 vccd1 vssd1 sky130_ef_sc_hd__decap_12
XFILLER_20_65 vssd1 vccd1 vccd1 vssd1 sky130_ef_sc_hd__decap_12
XFILLER_0_433 vssd1 vssd1 vccd1 vccd1 sky130_fd_sc_hd__fill_2
XFILLER_1_989 vssd1 vccd1 vccd1 vssd1 sky130_ef_sc_hd__decap_12
XFILLER_0_477 vssd1 vssd1 vccd1 vccd1 sky130_fd_sc_hd__decap_4
XFILLER_1_1105 vssd1 vccd1 vccd1 vssd1 sky130_ef_sc_hd__decap_12
XFILLER_21_1033 vssd1 vccd1 vccd1 vssd1 sky130_ef_sc_hd__decap_12
XFILLER_29_673 vssd1 vccd1 vccd1 vssd1 sky130_ef_sc_hd__decap_12
XFILLER_16_301 vssd1 vssd1 vccd1 vccd1 sky130_fd_sc_hd__decap_6
XFILLER_21_1077 vssd1 vccd1 vccd1 vssd1 sky130_ef_sc_hd__decap_12
XFILLER_16_345 vssd1 vccd1 vccd1 vssd1 sky130_ef_sc_hd__decap_12
XFILLER_32_805 vssd1 vssd1 vccd1 vccd1 sky130_fd_sc_hd__decap_6
XFILLER_16_389 vssd1 vccd1 vccd1 vssd1 sky130_ef_sc_hd__decap_12
XFILLER_31_337 vssd1 vccd1 vccd1 vssd1 sky130_ef_sc_hd__decap_12
XFILLER_40_893 vssd1 vccd1 vccd1 vssd1 sky130_ef_sc_hd__decap_12
XFILLER_6_23 vssd1 vssd1 vccd1 vccd1 sky130_fd_sc_hd__decap_4
XFILLER_32_1173 vssd1 vccd1 vccd1 vssd1 sky130_ef_sc_hd__decap_12
XANTENNA_5 _132_/A1 vssd1 vssd1 vccd1 vccd1 sky130_fd_sc_hd__diode_2
XTAP_304 vssd1 vccd1 sky130_fd_sc_hd__tapvpwrvgnd_1
XTAP_315 vssd1 vccd1 sky130_fd_sc_hd__tapvpwrvgnd_1
XFILLER_3_293 vssd1 vccd1 vccd1 vssd1 sky130_ef_sc_hd__decap_12
XTAP_326 vssd1 vccd1 sky130_fd_sc_hd__tapvpwrvgnd_1
XTAP_337 vssd1 vccd1 sky130_fd_sc_hd__tapvpwrvgnd_1
XTAP_348 vssd1 vccd1 sky130_fd_sc_hd__tapvpwrvgnd_1
XFILLER_6_1005 vssd1 vccd1 vccd1 vssd1 sky130_ef_sc_hd__decap_12
XTAP_359 vssd1 vccd1 sky130_fd_sc_hd__tapvpwrvgnd_1
XFILLER_6_1049 vssd1 vccd1 vccd1 vssd1 sky130_ef_sc_hd__decap_12
XFILLER_13_3 vssd1 vccd1 vccd1 vssd1 sky130_ef_sc_hd__decap_12
XFILLER_26_109 vssd1 vccd1 vccd1 vssd1 sky130_ef_sc_hd__decap_12
XFILLER_19_161 vssd1 vssd1 vccd1 vccd1 sky130_fd_sc_hd__decap_6
XFILLER_35_665 vssd1 vssd1 vccd1 vccd1 sky130_fd_sc_hd__decap_6
XFILLER_34_153 vssd1 vccd1 vccd1 vssd1 sky130_ef_sc_hd__decap_12
XFILLER_34_197 vssd1 vccd1 vccd1 vssd1 sky130_ef_sc_hd__decap_12
XFILLER_37_1062 vssd1 vssd1 vccd1 vccd1 sky130_fd_sc_hd__fill_2
XFILLER_11_1213 vssd1 vccd1 vccd1 vssd1 sky130_ef_sc_hd__decap_12
XFILLER_11_1257 vssd1 vssd1 vccd1 vccd1 sky130_fd_sc_hd__decap_8
XFILLER_11_1268 vssd1 vssd1 vccd1 vccd1 sky130_fd_sc_hd__fill_2
XTAP_860 vssd1 vccd1 sky130_fd_sc_hd__tapvpwrvgnd_1
XTAP_871 vssd1 vccd1 sky130_fd_sc_hd__tapvpwrvgnd_1
XTAP_882 vssd1 vccd1 sky130_fd_sc_hd__tapvpwrvgnd_1
XTAP_893 vssd1 vccd1 sky130_fd_sc_hd__tapvpwrvgnd_1
XFILLER_14_805 vssd1 vssd1 vccd1 vccd1 sky130_fd_sc_hd__decap_6
XFILLER_26_643 vssd1 vssd1 vccd1 vccd1 sky130_fd_sc_hd__fill_1
XFILLER_14_849 vssd1 vccd1 vccd1 vssd1 sky130_ef_sc_hd__decap_12
XFILLER_13_337 vssd1 vccd1 vccd1 vssd1 sky130_ef_sc_hd__decap_12
XFILLER_15_54 vssd1 vssd1 vccd1 vccd1 sky130_fd_sc_hd__fill_2
XFILLER_40_189 vssd1 vssd1 vccd1 vccd1 sky130_fd_sc_hd__decap_6
XFILLER_22_893 vssd1 vccd1 vccd1 vssd1 sky130_ef_sc_hd__decap_12
XFILLER_5_503 vssd1 vssd1 vccd1 vccd1 sky130_fd_sc_hd__fill_1
XFILLER_0_230 vssd1 vssd1 vccd1 vccd1 sky130_fd_sc_hd__decap_4
XFILLER_1_742 vssd1 vssd1 vccd1 vccd1 sky130_fd_sc_hd__decap_3
XFILLER_27_1231 vssd1 vssd1 vccd1 vccd1 sky130_fd_sc_hd__fill_1
Xinput120 m2_others_wbd_dat_i[23] vssd1 vssd1 vccd1 vccd1 _177_/A1 sky130_fd_sc_hd__clkbuf_1
Xinput153 m2_wbd_dat_i[18] vssd1 vssd1 vccd1 vccd1 _348_/A sky130_fd_sc_hd__buf_2
Xinput142 m2_others_wbd_we_i vssd1 vssd1 vccd1 vccd1 _275_/A1 sky130_fd_sc_hd__dlymetal6s2s_1
Xinput131 m2_others_wbd_dat_i[4] vssd1 vssd1 vccd1 vccd1 _134_/A1 sky130_fd_sc_hd__buf_2
Xinput164 m2_wbd_dat_i[28] vssd1 vssd1 vccd1 vccd1 _358_/A sky130_fd_sc_hd__dlymetal6s2s_1
Xinput175 m2_wbd_dat_i[9] vssd1 vssd1 vccd1 vccd1 _339_/A sky130_fd_sc_hd__buf_2
XFILLER_45_974 vssd1 vssd1 vccd1 vccd1 sky130_fd_sc_hd__fill_2
XFILLER_45_963 vssd1 vssd1 vccd1 vccd1 sky130_fd_sc_hd__fill_2
XFILLER_17_665 vssd1 vssd1 vccd1 vccd1 sky130_fd_sc_hd__decap_6
XFILLER_16_153 vssd1 vccd1 vccd1 vssd1 sky130_ef_sc_hd__decap_12
XFILLER_32_613 vssd1 vccd1 vccd1 vssd1 sky130_ef_sc_hd__decap_12
XFILLER_16_197 vssd1 vccd1 vccd1 vssd1 sky130_ef_sc_hd__decap_12
XFILLER_32_657 vssd1 vccd1 vccd1 vssd1 sky130_ef_sc_hd__decap_12
XFILLER_31_167 vssd1 vssd1 vccd1 vccd1 sky130_fd_sc_hd__fill_1
XFILLER_9_853 vssd1 vccd1 vccd1 vssd1 sky130_ef_sc_hd__decap_12
XFILLER_8_363 vssd1 vssd1 vccd1 vccd1 sky130_fd_sc_hd__fill_1
XFILLER_9_897 vssd1 vccd1 vccd1 vssd1 sky130_ef_sc_hd__decap_12
XFILLER_28_1017 vssd1 vccd1 vccd1 vssd1 sky130_ef_sc_hd__decap_12
XTAP_123 vssd1 vccd1 sky130_fd_sc_hd__tapvpwrvgnd_1
XTAP_101 vssd1 vccd1 sky130_fd_sc_hd__tapvpwrvgnd_1
XTAP_112 vssd1 vccd1 sky130_fd_sc_hd__tapvpwrvgnd_1
XTAP_134 vssd1 vccd1 sky130_fd_sc_hd__tapvpwrvgnd_1
XTAP_156 vssd1 vccd1 sky130_fd_sc_hd__tapvpwrvgnd_1
XTAP_145 vssd1 vccd1 sky130_fd_sc_hd__tapvpwrvgnd_1
XFILLER_39_223 vssd1 vssd1 vccd1 vccd1 sky130_fd_sc_hd__fill_1
XTAP_189 vssd1 vccd1 sky130_fd_sc_hd__tapvpwrvgnd_1
XTAP_178 vssd1 vccd1 sky130_fd_sc_hd__tapvpwrvgnd_1
XTAP_167 vssd1 vccd1 sky130_fd_sc_hd__tapvpwrvgnd_1
XFILLER_27_429 vssd1 vccd1 vccd1 vssd1 sky130_ef_sc_hd__decap_12
XFILLER_39_1113 vssd1 vssd1 vccd1 vccd1 sky130_fd_sc_hd__decap_6
XFILLER_35_473 vssd1 vccd1 vccd1 vssd1 sky130_ef_sc_hd__decap_12
XFILLER_23_613 vssd1 vssd1 vccd1 vccd1 sky130_fd_sc_hd__decap_3
XFILLER_39_1157 vssd1 vccd1 vccd1 vssd1 sky130_ef_sc_hd__decap_12
XFILLER_10_307 vssd1 vssd1 vccd1 vccd1 sky130_fd_sc_hd__fill_1
XFILLER_22_189 vssd1 vssd1 vccd1 vccd1 sky130_fd_sc_hd__decap_6
XFILLER_11_1021 vssd1 vccd1 vccd1 vssd1 sky130_ef_sc_hd__decap_12
XFILLER_11_1065 vssd1 vccd1 vccd1 vssd1 sky130_ef_sc_hd__decap_12
XTAP_690 vssd1 vccd1 sky130_fd_sc_hd__tapvpwrvgnd_1
XFILLER_46_738 vssd1 vssd1 vccd1 vccd1 sky130_fd_sc_hd__fill_2
XFILLER_22_1161 vssd1 vccd1 vccd1 vssd1 sky130_ef_sc_hd__decap_12
XFILLER_45_237 vssd1 vccd1 vccd1 vssd1 sky130_ef_sc_hd__decap_12
XFILLER_14_613 vssd1 vccd1 vccd1 vssd1 sky130_ef_sc_hd__decap_12
XFILLER_26_53 vssd1 vccd1 vccd1 vssd1 sky130_ef_sc_hd__decap_12
X_362_ _363_/A vssd1 vssd1 vccd1 vccd1 _362_/X sky130_fd_sc_hd__clkbuf_1
XFILLER_14_657 vssd1 vccd1 vccd1 vssd1 sky130_ef_sc_hd__decap_12
XFILLER_26_97 vssd1 vccd1 vccd1 vssd1 sky130_ef_sc_hd__decap_12
XFILLER_9_105 vssd1 vssd1 vccd1 vccd1 sky130_fd_sc_hd__decap_6
XFILLER_13_167 vssd1 vssd1 vccd1 vccd1 sky130_fd_sc_hd__fill_1
XFILLER_42_41 vssd1 vccd1 vccd1 vssd1 sky130_ef_sc_hd__decap_12
XFILLER_9_149 vssd1 vccd1 vccd1 vssd1 sky130_ef_sc_hd__decap_12
XFILLER_42_85 vssd1 vccd1 vccd1 vssd1 sky130_ef_sc_hd__decap_12
XFILLER_10_852 vssd1 vccd1 vccd1 vssd1 sky130_ef_sc_hd__decap_12
XFILLER_6_867 vssd1 vssd1 vccd1 vccd1 sky130_fd_sc_hd__fill_1
XFILLER_1_561 vssd1 vssd1 vccd1 vccd1 sky130_fd_sc_hd__fill_2
XFILLER_3_57 vssd1 vccd1 vccd1 vssd1 sky130_ef_sc_hd__decap_12
XFILLER_1_594 vssd1 vssd1 vccd1 vccd1 sky130_fd_sc_hd__decap_8
XFILLER_7_1133 vssd1 vccd1 vccd1 vssd1 sky130_ef_sc_hd__decap_12
XFILLER_7_1177 vssd1 vccd1 vccd1 vssd1 sky130_ef_sc_hd__decap_12
XFILLER_37_727 vssd1 vssd1 vccd1 vccd1 sky130_fd_sc_hd__fill_1
XFILLER_40_1261 vssd1 vccd1 vccd1 vssd1 sky130_ef_sc_hd__decap_12
XFILLER_45_760 vssd1 vssd1 vccd1 vccd1 sky130_fd_sc_hd__decap_8
XFILLER_17_473 vssd1 vccd1 vccd1 vssd1 sky130_ef_sc_hd__decap_12
XFILLER_32_421 vssd1 vccd1 vccd1 vssd1 sky130_ef_sc_hd__decap_12
XFILLER_33_977 vssd1 vccd1 vccd1 vssd1 sky130_ef_sc_hd__decap_12
XFILLER_45_1172 vssd1 vssd1 vccd1 vccd1 sky130_fd_sc_hd__decap_4
XFILLER_28_749 vssd1 vssd1 vccd1 vccd1 sky130_fd_sc_hd__decap_6
XFILLER_27_237 vssd1 vccd1 vccd1 vssd1 sky130_ef_sc_hd__decap_12
XTAP_1119 vssd1 vccd1 sky130_fd_sc_hd__tapvpwrvgnd_1
XTAP_1108 vssd1 vccd1 sky130_fd_sc_hd__tapvpwrvgnd_1
XFILLER_36_793 vssd1 vccd1 vccd1 vssd1 sky130_ef_sc_hd__decap_12
XFILLER_35_281 vssd1 vccd1 vccd1 vssd1 sky130_ef_sc_hd__decap_12
XFILLER_7_609 vssd1 vssd1 vccd1 vccd1 sky130_fd_sc_hd__decap_6
XFILLER_12_77 vssd1 vssd1 vccd1 vccd1 sky130_fd_sc_hd__decap_6
XFILLER_2_358 vssd1 vssd1 vccd1 vccd1 sky130_fd_sc_hd__decap_6
XFILLER_19_705 vssd1 vssd1 vccd1 vccd1 sky130_fd_sc_hd__decap_3
XFILLER_19_749 vssd1 vccd1 vccd1 vssd1 sky130_ef_sc_hd__decap_12
XFILLER_18_237 vssd1 vccd1 vccd1 vssd1 sky130_ef_sc_hd__decap_12