* NGSPICE file created from l1icache_32.ext - technology: sky130B

* Black-box entry subcircuit for sky130_fd_sc_hd__tapvpwrvgnd_1 abstract view
.subckt sky130_fd_sc_hd__tapvpwrvgnd_1 VGND VPWR
.ends

* Black-box entry subcircuit for sky130_ef_sc_hd__decap_12 abstract view
.subckt sky130_ef_sc_hd__decap_12 VGND VPWR VPB VNB
.ends

* Black-box entry subcircuit for sky130_fd_sc_hd__decap_6 abstract view
.subckt sky130_fd_sc_hd__decap_6 VGND VNB VPB VPWR
.ends

* Black-box entry subcircuit for sky130_fd_sc_hd__decap_3 abstract view
.subckt sky130_fd_sc_hd__decap_3 VGND VNB VPB VPWR
.ends

* Black-box entry subcircuit for sky130_fd_sc_hd__fill_2 abstract view
.subckt sky130_fd_sc_hd__fill_2 VGND VNB VPB VPWR
.ends

* Black-box entry subcircuit for sky130_fd_sc_hd__decap_8 abstract view
.subckt sky130_fd_sc_hd__decap_8 VGND VNB VPB VPWR
.ends

* Black-box entry subcircuit for sky130_fd_sc_hd__fill_1 abstract view
.subckt sky130_fd_sc_hd__fill_1 VGND VNB VPB VPWR
.ends

* Black-box entry subcircuit for sky130_fd_sc_hd__dfxtp_1 abstract view
.subckt sky130_fd_sc_hd__dfxtp_1 CLK D VGND VNB VPB VPWR Q
.ends

* Black-box entry subcircuit for sky130_fd_sc_hd__decap_4 abstract view
.subckt sky130_fd_sc_hd__decap_4 VGND VNB VPB VPWR
.ends

* Black-box entry subcircuit for sky130_fd_sc_hd__clkbuf_1 abstract view
.subckt sky130_fd_sc_hd__clkbuf_1 A VGND VNB VPB VPWR X
.ends

* Black-box entry subcircuit for sky130_fd_sc_hd__a22o_2 abstract view
.subckt sky130_fd_sc_hd__a22o_2 A1 A2 B1 B2 VGND VNB VPB VPWR X
.ends

* Black-box entry subcircuit for sky130_fd_sc_hd__and2_1 abstract view
.subckt sky130_fd_sc_hd__and2_1 A B VGND VNB VPB VPWR X
.ends

* Black-box entry subcircuit for sky130_fd_sc_hd__buf_4 abstract view
.subckt sky130_fd_sc_hd__buf_4 A VGND VNB VPB VPWR X
.ends

* Black-box entry subcircuit for sky130_fd_sc_hd__a21o_1 abstract view
.subckt sky130_fd_sc_hd__a21o_1 A1 A2 B1 VGND VNB VPB VPWR X
.ends

* Black-box entry subcircuit for sky130_fd_sc_hd__a21oi_1 abstract view
.subckt sky130_fd_sc_hd__a21oi_1 A1 A2 B1 VGND VNB VPB VPWR Y
.ends

* Black-box entry subcircuit for sky130_fd_sc_hd__a22o_1 abstract view
.subckt sky130_fd_sc_hd__a22o_1 A1 A2 B1 B2 VGND VNB VPB VPWR X
.ends

* Black-box entry subcircuit for sky130_fd_sc_hd__dfxtp_2 abstract view
.subckt sky130_fd_sc_hd__dfxtp_2 CLK D VGND VNB VPB VPWR Q
.ends

* Black-box entry subcircuit for sky130_fd_sc_hd__mux2_1 abstract view
.subckt sky130_fd_sc_hd__mux2_1 A0 A1 S VGND VNB VPB VPWR X
.ends

* Black-box entry subcircuit for sky130_fd_sc_hd__or2b_1 abstract view
.subckt sky130_fd_sc_hd__or2b_1 A B_N VGND VNB VPB VPWR X
.ends

* Black-box entry subcircuit for sky130_fd_sc_hd__clkbuf_2 abstract view
.subckt sky130_fd_sc_hd__clkbuf_2 A VGND VNB VPB VPWR X
.ends

* Black-box entry subcircuit for sky130_fd_sc_hd__dlymetal6s2s_1 abstract view
.subckt sky130_fd_sc_hd__dlymetal6s2s_1 A VGND VNB VPB VPWR X
.ends

* Black-box entry subcircuit for sky130_fd_sc_hd__diode_2 abstract view
.subckt sky130_fd_sc_hd__diode_2 DIODE VGND VNB VPB VPWR
.ends

* Black-box entry subcircuit for sky130_fd_sc_hd__and2b_1 abstract view
.subckt sky130_fd_sc_hd__and2b_1 A_N B VGND VNB VPB VPWR X
.ends

* Black-box entry subcircuit for sky130_fd_sc_hd__conb_1 abstract view
.subckt sky130_fd_sc_hd__conb_1 VGND VNB VPB VPWR HI LO
.ends

* Black-box entry subcircuit for sky130_fd_sc_hd__clkbuf_16 abstract view
.subckt sky130_fd_sc_hd__clkbuf_16 A VGND VNB VPB VPWR X
.ends

* Black-box entry subcircuit for sky130_fd_sc_hd__inv_2 abstract view
.subckt sky130_fd_sc_hd__inv_2 A VGND VNB VPB VPWR Y
.ends

* Black-box entry subcircuit for sky130_fd_sc_hd__nor2_1 abstract view
.subckt sky130_fd_sc_hd__nor2_1 A B VGND VNB VPB VPWR Y
.ends

* Black-box entry subcircuit for sky130_fd_sc_hd__buf_2 abstract view
.subckt sky130_fd_sc_hd__buf_2 A VGND VNB VPB VPWR X
.ends

* Black-box entry subcircuit for sky130_fd_sc_hd__nor3_1 abstract view
.subckt sky130_fd_sc_hd__nor3_1 A B C VGND VNB VPB VPWR Y
.ends

* Black-box entry subcircuit for sky130_fd_sc_hd__a21o_2 abstract view
.subckt sky130_fd_sc_hd__a21o_2 A1 A2 B1 VGND VNB VPB VPWR X
.ends

* Black-box entry subcircuit for sky130_fd_sc_hd__clkbuf_4 abstract view
.subckt sky130_fd_sc_hd__clkbuf_4 A VGND VNB VPB VPWR X
.ends

* Black-box entry subcircuit for sky130_fd_sc_hd__dfxtp_4 abstract view
.subckt sky130_fd_sc_hd__dfxtp_4 CLK D VGND VNB VPB VPWR Q
.ends

* Black-box entry subcircuit for sky130_fd_sc_hd__a2111o_1 abstract view
.subckt sky130_fd_sc_hd__a2111o_1 A1 A2 B1 C1 D1 VGND VNB VPB VPWR X
.ends

* Black-box entry subcircuit for sky130_fd_sc_hd__o21a_2 abstract view
.subckt sky130_fd_sc_hd__o21a_2 A1 A2 B1 VGND VNB VPB VPWR X
.ends

* Black-box entry subcircuit for sky130_fd_sc_hd__a31o_1 abstract view
.subckt sky130_fd_sc_hd__a31o_1 A1 A2 A3 B1 VGND VNB VPB VPWR X
.ends

* Black-box entry subcircuit for sky130_fd_sc_hd__and3_1 abstract view
.subckt sky130_fd_sc_hd__and3_1 A B C VGND VNB VPB VPWR X
.ends

* Black-box entry subcircuit for sky130_fd_sc_hd__xor2_1 abstract view
.subckt sky130_fd_sc_hd__xor2_1 A B VGND VNB VPB VPWR X
.ends

* Black-box entry subcircuit for sky130_fd_sc_hd__o211a_2 abstract view
.subckt sky130_fd_sc_hd__o211a_2 A1 A2 B1 C1 VGND VNB VPB VPWR X
.ends

* Black-box entry subcircuit for sky130_fd_sc_hd__o311a_1 abstract view
.subckt sky130_fd_sc_hd__o311a_1 A1 A2 A3 B1 C1 VGND VNB VPB VPWR X
.ends

* Black-box entry subcircuit for sky130_fd_sc_hd__o2111ai_1 abstract view
.subckt sky130_fd_sc_hd__o2111ai_1 A1 A2 B1 C1 D1 VGND VNB VPB VPWR Y
.ends

* Black-box entry subcircuit for sky130_fd_sc_hd__a32o_1 abstract view
.subckt sky130_fd_sc_hd__a32o_1 A1 A2 A3 B1 B2 VGND VNB VPB VPWR X
.ends

* Black-box entry subcircuit for sky130_fd_sc_hd__a211o_1 abstract view
.subckt sky130_fd_sc_hd__a211o_1 A1 A2 B1 C1 VGND VNB VPB VPWR X
.ends

* Black-box entry subcircuit for sky130_fd_sc_hd__or4_2 abstract view
.subckt sky130_fd_sc_hd__or4_2 A B C D VGND VNB VPB VPWR X
.ends

* Black-box entry subcircuit for sky130_fd_sc_hd__buf_8 abstract view
.subckt sky130_fd_sc_hd__buf_8 A VGND VNB VPB VPWR X
.ends

* Black-box entry subcircuit for sky130_fd_sc_hd__or4_1 abstract view
.subckt sky130_fd_sc_hd__or4_1 A B C D VGND VNB VPB VPWR X
.ends

* Black-box entry subcircuit for sky130_fd_sc_hd__or2_1 abstract view
.subckt sky130_fd_sc_hd__or2_1 A B VGND VNB VPB VPWR X
.ends

* Black-box entry subcircuit for sky130_fd_sc_hd__a221o_1 abstract view
.subckt sky130_fd_sc_hd__a221o_1 A1 A2 B1 B2 C1 VGND VNB VPB VPWR X
.ends

* Black-box entry subcircuit for sky130_fd_sc_hd__o21a_4 abstract view
.subckt sky130_fd_sc_hd__o21a_4 A1 A2 B1 VGND VNB VPB VPWR X
.ends

* Black-box entry subcircuit for sky130_fd_sc_hd__a2bb2o_1 abstract view
.subckt sky130_fd_sc_hd__a2bb2o_1 A1_N A2_N B1 B2 VGND VNB VPB VPWR X
.ends

* Black-box entry subcircuit for sky130_fd_sc_hd__or3_1 abstract view
.subckt sky130_fd_sc_hd__or3_1 A B C VGND VNB VPB VPWR X
.ends

* Black-box entry subcircuit for sky130_fd_sc_hd__clkinv_2 abstract view
.subckt sky130_fd_sc_hd__clkinv_2 A VGND VNB VPB VPWR Y
.ends

* Black-box entry subcircuit for sky130_fd_sc_hd__nor2_2 abstract view
.subckt sky130_fd_sc_hd__nor2_2 A B VGND VNB VPB VPWR Y
.ends

.subckt l1icache_32 clk data_chip_en data_in[0] data_in[10] data_in[11] data_in[12]
+ data_in[13] data_in[14] data_in[15] data_in[16] data_in[17] data_in[18] data_in[19]
+ data_in[1] data_in[20] data_in[21] data_in[22] data_in[23] data_in[24] data_in[25]
+ data_in[26] data_in[27] data_in[28] data_in[29] data_in[2] data_in[30] data_in[31]
+ data_in[3] data_in[4] data_in[5] data_in[6] data_in[7] data_in[8] data_in[9] data_index[0]
+ data_index[1] data_index[2] data_index[3] data_index[4] data_index[5] data_index[6]
+ data_index[7] data_out[0] data_out[10] data_out[11] data_out[12] data_out[13] data_out[14]
+ data_out[15] data_out[16] data_out[17] data_out[18] data_out[19] data_out[1] data_out[20]
+ data_out[21] data_out[22] data_out[23] data_out[24] data_out[25] data_out[26] data_out[27]
+ data_out[28] data_out[29] data_out[2] data_out[30] data_out[31] data_out[3] data_out[4]
+ data_out[5] data_out[6] data_out[7] data_out[8] data_out[9] data_write_en ld_data_o[0]
+ ld_data_o[10] ld_data_o[11] ld_data_o[12] ld_data_o[13] ld_data_o[14] ld_data_o[15]
+ ld_data_o[16] ld_data_o[17] ld_data_o[18] ld_data_o[19] ld_data_o[1] ld_data_o[20]
+ ld_data_o[21] ld_data_o[22] ld_data_o[23] ld_data_o[24] ld_data_o[25] ld_data_o[26]
+ ld_data_o[27] ld_data_o[28] ld_data_o[29] ld_data_o[2] ld_data_o[30] ld_data_o[31]
+ ld_data_o[3] ld_data_o[4] ld_data_o[5] ld_data_o[6] ld_data_o[7] ld_data_o[8] ld_data_o[9]
+ req_addr_i[0] req_addr_i[10] req_addr_i[11] req_addr_i[12] req_addr_i[13] req_addr_i[14]
+ req_addr_i[15] req_addr_i[16] req_addr_i[17] req_addr_i[18] req_addr_i[19] req_addr_i[1]
+ req_addr_i[20] req_addr_i[21] req_addr_i[22] req_addr_i[23] req_addr_i[24] req_addr_i[25]
+ req_addr_i[26] req_addr_i[27] req_addr_i[28] req_addr_i[29] req_addr_i[2] req_addr_i[30]
+ req_addr_i[31] req_addr_i[3] req_addr_i[4] req_addr_i[5] req_addr_i[6] req_addr_i[7]
+ req_addr_i[8] req_addr_i[9] req_ready_o req_valid_i resp_addr_o[0] resp_addr_o[10]
+ resp_addr_o[11] resp_addr_o[12] resp_addr_o[13] resp_addr_o[14] resp_addr_o[15]
+ resp_addr_o[16] resp_addr_o[17] resp_addr_o[18] resp_addr_o[19] resp_addr_o[1] resp_addr_o[20]
+ resp_addr_o[21] resp_addr_o[22] resp_addr_o[23] resp_addr_o[24] resp_addr_o[25]
+ resp_addr_o[26] resp_addr_o[27] resp_addr_o[28] resp_addr_o[29] resp_addr_o[2] resp_addr_o[30]
+ resp_addr_o[31] resp_addr_o[3] resp_addr_o[4] resp_addr_o[5] resp_addr_o[6] resp_addr_o[7]
+ resp_addr_o[8] resp_addr_o[9] resp_ready_i resp_valid_o rstn tag_chip_en tag_data_in[0]
+ tag_data_in[10] tag_data_in[11] tag_data_in[12] tag_data_in[13] tag_data_in[14]
+ tag_data_in[15] tag_data_in[16] tag_data_in[17] tag_data_in[18] tag_data_in[19]
+ tag_data_in[1] tag_data_in[20] tag_data_in[21] tag_data_in[22] tag_data_in[23] tag_data_in[24]
+ tag_data_in[25] tag_data_in[26] tag_data_in[27] tag_data_in[28] tag_data_in[29]
+ tag_data_in[2] tag_data_in[30] tag_data_in[31] tag_data_in[3] tag_data_in[4] tag_data_in[5]
+ tag_data_in[6] tag_data_in[7] tag_data_in[8] tag_data_in[9] tag_index[0] tag_index[1]
+ tag_index[2] tag_index[3] tag_index[4] tag_index[5] tag_index[6] tag_index[7] tag_out[0]
+ tag_out[10] tag_out[11] tag_out[12] tag_out[13] tag_out[14] tag_out[15] tag_out[16]
+ tag_out[17] tag_out[18] tag_out[19] tag_out[1] tag_out[20] tag_out[21] tag_out[22]
+ tag_out[23] tag_out[24] tag_out[25] tag_out[26] tag_out[27] tag_out[28] tag_out[29]
+ tag_out[2] tag_out[30] tag_out[31] tag_out[3] tag_out[4] tag_out[5] tag_out[6] tag_out[7]
+ tag_out[8] tag_out[9] tag_write_en vccd1 vssd1 wb_ack_i wb_adr_o[0] wb_adr_o[10]
+ wb_adr_o[11] wb_adr_o[12] wb_adr_o[13] wb_adr_o[14] wb_adr_o[15] wb_adr_o[16] wb_adr_o[17]
+ wb_adr_o[18] wb_adr_o[19] wb_adr_o[1] wb_adr_o[20] wb_adr_o[21] wb_adr_o[22] wb_adr_o[23]
+ wb_adr_o[24] wb_adr_o[25] wb_adr_o[26] wb_adr_o[27] wb_adr_o[28] wb_adr_o[29] wb_adr_o[2]
+ wb_adr_o[30] wb_adr_o[31] wb_adr_o[3] wb_adr_o[4] wb_adr_o[5] wb_adr_o[6] wb_adr_o[7]
+ wb_adr_o[8] wb_adr_o[9] wb_bl_o[0] wb_bl_o[1] wb_bl_o[2] wb_bl_o[3] wb_bl_o[4] wb_bl_o[5]
+ wb_bl_o[6] wb_bl_o[7] wb_bl_o[8] wb_bl_o[9] wb_bry_o wb_cyc_o wb_dat_i[0] wb_dat_i[10]
+ wb_dat_i[11] wb_dat_i[12] wb_dat_i[13] wb_dat_i[14] wb_dat_i[15] wb_dat_i[16] wb_dat_i[17]
+ wb_dat_i[18] wb_dat_i[19] wb_dat_i[1] wb_dat_i[20] wb_dat_i[21] wb_dat_i[22] wb_dat_i[23]
+ wb_dat_i[24] wb_dat_i[25] wb_dat_i[26] wb_dat_i[27] wb_dat_i[28] wb_dat_i[29] wb_dat_i[2]
+ wb_dat_i[30] wb_dat_i[31] wb_dat_i[3] wb_dat_i[4] wb_dat_i[5] wb_dat_i[6] wb_dat_i[7]
+ wb_dat_i[8] wb_dat_i[9] wb_stb_o wb_we_o write_data_mask[0] write_data_mask[1] write_data_mask[2]
+ write_data_mask[3] write_tag_mask[0] write_tag_mask[1] write_tag_mask[2] write_tag_mask[3]
XTAP_199 vssd1 vccd1 sky130_fd_sc_hd__tapvpwrvgnd_1
XTAP_188 vssd1 vccd1 sky130_fd_sc_hd__tapvpwrvgnd_1
XTAP_177 vssd1 vccd1 sky130_fd_sc_hd__tapvpwrvgnd_1
XFILLER_27_406 vssd1 vccd1 vccd1 vssd1 sky130_ef_sc_hd__decap_12
XFILLER_35_461 vssd1 vccd1 vccd1 vssd1 sky130_ef_sc_hd__decap_12
XFILLER_22_133 vssd1 vssd1 vccd1 vccd1 sky130_fd_sc_hd__decap_6
XFILLER_22_177 vssd1 vccd1 vccd1 vssd1 sky130_ef_sc_hd__decap_12
XFILLER_46_704 vssd1 vssd1 vccd1 vccd1 sky130_fd_sc_hd__decap_3
XFILLER_18_417 vssd1 vssd1 vccd1 vccd1 sky130_fd_sc_hd__decap_3
XFILLER_19_929 vssd1 vssd1 vccd1 vccd1 sky130_fd_sc_hd__fill_2
XFILLER_46_748 vssd1 vssd1 vccd1 vccd1 sky130_fd_sc_hd__decap_8
XFILLER_45_225 vssd1 vccd1 vccd1 vssd1 sky130_ef_sc_hd__decap_12
XFILLER_26_41 vssd1 vccd1 vccd1 vssd1 sky130_ef_sc_hd__decap_12
XFILLER_13_111 vssd1 vssd1 vccd1 vccd1 sky130_fd_sc_hd__fill_1
XFILLER_26_85 vssd1 vccd1 vccd1 vssd1 sky130_ef_sc_hd__decap_12
XFILLER_14_678 vssd1 vssd1 vccd1 vccd1 sky130_fd_sc_hd__decap_8
XFILLER_9_137 vssd1 vccd1 vccd1 vssd1 sky130_ef_sc_hd__decap_12
XFILLER_41_497 vssd1 vssd1 vccd1 vccd1 sky130_fd_sc_hd__decap_6
XFILLER_6_811 vssd1 vssd1 vccd1 vccd1 sky130_fd_sc_hd__fill_1
XFILLER_5_310 vssd1 vssd1 vccd1 vccd1 sky130_fd_sc_hd__fill_2
X_1270_ _1305_/CLK _1270_/D vssd1 vssd1 vccd1 vccd1 _1270_/Q sky130_fd_sc_hd__dfxtp_1
XFILLER_24_409 vssd1 vssd1 vccd1 vccd1 sky130_fd_sc_hd__decap_8
XFILLER_17_461 vssd1 vssd1 vccd1 vccd1 sky130_fd_sc_hd__decap_4
XFILLER_17_472 vssd1 vssd1 vccd1 vccd1 sky130_fd_sc_hd__decap_3
XFILLER_33_921 vssd1 vccd1 vccd1 vssd1 sky130_ef_sc_hd__decap_12
XFILLER_32_475 vssd1 vssd1 vccd1 vccd1 sky130_fd_sc_hd__fill_1
XFILLER_9_671 vssd1 vssd1 vccd1 vccd1 sky130_fd_sc_hd__fill_1
X_0985_ _0985_/A vssd1 vssd1 vccd1 vccd1 _1235_/D sky130_fd_sc_hd__clkbuf_1
XFILLER_27_225 vssd1 vccd1 vccd1 vssd1 sky130_ef_sc_hd__decap_12
XFILLER_43_729 vssd1 vccd1 vccd1 vssd1 sky130_ef_sc_hd__decap_12
XFILLER_36_781 vssd1 vccd1 vccd1 vssd1 sky130_ef_sc_hd__decap_12
XFILLER_24_943 vssd1 vssd1 vccd1 vccd1 sky130_fd_sc_hd__fill_1
XFILLER_23_453 vssd1 vssd1 vccd1 vccd1 sky130_fd_sc_hd__decap_3
XFILLER_23_475 vssd1 vssd1 vccd1 vccd1 sky130_fd_sc_hd__decap_3
XFILLER_12_65 vssd1 vccd1 vccd1 vssd1 sky130_ef_sc_hd__decap_12
XFILLER_19_715 vssd1 vssd1 vccd1 vccd1 sky130_fd_sc_hd__decap_3
XFILLER_18_203 vssd1 vssd1 vccd1 vccd1 sky130_fd_sc_hd__fill_1
XFILLER_46_589 vssd1 vssd1 vccd1 vccd1 sky130_fd_sc_hd__decap_8
XFILLER_15_921 vssd1 vccd1 vccd1 vssd1 sky130_ef_sc_hd__decap_12
XFILLER_33_217 vssd1 vssd1 vccd1 vccd1 sky130_fd_sc_hd__decap_6
XFILLER_15_943 vssd1 vssd1 vccd1 vccd1 sky130_fd_sc_hd__fill_2
XFILLER_14_475 vssd1 vssd1 vccd1 vccd1 sky130_fd_sc_hd__fill_1
XFILLER_41_261 vssd1 vccd1 vccd1 vssd1 sky130_ef_sc_hd__decap_12
XFILLER_10_681 vssd1 vccd1 vccd1 vssd1 sky130_ef_sc_hd__decap_12
X_0770_ _0754_/X _0901_/A2 _0767_/X _0769_/Y vssd1 vssd1 vccd1 vccd1 _1164_/B sky130_fd_sc_hd__a22o_2
X_1322_ _1330_/A vssd1 vssd1 vccd1 vccd1 _1322_/X sky130_fd_sc_hd__clkbuf_1
X_1253_ _1291_/CLK _1253_/D vssd1 vssd1 vccd1 vccd1 _1253_/Q sky130_fd_sc_hd__dfxtp_1
X_1184_ _1192_/A _1184_/B vssd1 vssd1 vccd1 vccd1 _1185_/A sky130_fd_sc_hd__and2_1
XFILLER_25_729 vssd1 vssd1 vccd1 vccd1 sky130_fd_sc_hd__decap_3
X_0968_ _0979_/A vssd1 vssd1 vccd1 vccd1 _0977_/S sky130_fd_sc_hd__buf_4
X_0899_ _0897_/X input99/X _0895_/X vssd1 vssd1 vccd1 vccd1 _0899_/X sky130_fd_sc_hd__a21o_1
Xoutput242 _0584_/X vssd1 vssd1 vccd1 vccd1 tag_data_in[18] sky130_fd_sc_hd__clkbuf_1
Xoutput220 _1237_/Q vssd1 vssd1 vccd1 vccd1 resp_addr_o[29] sky130_fd_sc_hd__clkbuf_1
Xoutput231 _1196_/C vssd1 vssd1 vccd1 vccd1 resp_valid_o sky130_fd_sc_hd__clkbuf_1
Xoutput253 _1328_/X vssd1 vssd1 vccd1 vccd1 tag_data_in[28] sky130_fd_sc_hd__clkbuf_1
Xoutput264 _0571_/X vssd1 vssd1 vccd1 vccd1 tag_data_in[9] sky130_fd_sc_hd__clkbuf_1
Xoutput275 _0619_/X vssd1 vssd1 vccd1 vccd1 wb_adr_o[10] sky130_fd_sc_hd__clkbuf_1
Xoutput286 _0641_/X vssd1 vssd1 vccd1 vccd1 wb_adr_o[20] sky130_fd_sc_hd__clkbuf_1
Xoutput297 _0662_/X vssd1 vssd1 vccd1 vccd1 wb_adr_o[30] sky130_fd_sc_hd__clkbuf_1
XFILLER_15_217 vssd1 vssd1 vccd1 vccd1 sky130_fd_sc_hd__decap_6
XFILLER_43_559 vssd1 vssd1 vccd1 vccd1 sky130_fd_sc_hd__fill_1
XFILLER_30_209 vssd1 vccd1 vccd1 vssd1 sky130_ef_sc_hd__decap_12
XFILLER_8_917 vssd1 vssd1 vccd1 vccd1 sky130_fd_sc_hd__decap_6
XFILLER_7_405 vssd1 vccd1 vccd1 vssd1 sky130_ef_sc_hd__decap_12
XFILLER_23_294 vssd1 vssd1 vccd1 vccd1 sky130_fd_sc_hd__fill_1
XFILLER_7_449 vssd1 vccd1 vccd1 vssd1 sky130_ef_sc_hd__decap_12
XFILLER_3_633 vssd1 vssd1 vccd1 vccd1 sky130_fd_sc_hd__fill_1
XFILLER_2_121 vssd1 vccd1 vccd1 vssd1 sky130_ef_sc_hd__decap_12
XFILLER_2_165 vssd1 vccd1 vccd1 vssd1 sky130_ef_sc_hd__decap_12
XFILLER_38_309 vssd1 vccd1 vccd1 vssd1 sky130_ef_sc_hd__decap_12
XFILLER_19_545 vssd1 vssd1 vccd1 vccd1 sky130_fd_sc_hd__fill_2
XFILLER_19_567 vssd1 vssd1 vccd1 vccd1 sky130_fd_sc_hd__decap_3
XFILLER_21_209 vssd1 vssd1 vccd1 vccd1 sky130_fd_sc_hd__decap_4
XFILLER_42_581 vssd1 vssd1 vccd1 vccd1 sky130_fd_sc_hd__decap_6
X_0822_ _0805_/X _0821_/Y _0813_/X vssd1 vssd1 vccd1 vccd1 _0822_/Y sky130_fd_sc_hd__a21oi_1
X_0753_ _0729_/X input98/X _0750_/X _0752_/Y vssd1 vssd1 vccd1 vccd1 _1157_/B sky130_fd_sc_hd__a22o_1
X_0684_ _1278_/Q _0683_/X _0671_/X vssd1 vssd1 vccd1 vccd1 _0684_/X sky130_fd_sc_hd__a21o_1
X_1305_ _1305_/CLK _1305_/D vssd1 vssd1 vccd1 vccd1 _1305_/Q sky130_fd_sc_hd__dfxtp_1
X_1236_ _1305_/CLK _1236_/D vssd1 vssd1 vccd1 vccd1 _1236_/Q sky130_fd_sc_hd__dfxtp_2
X_1167_ _1167_/A vssd1 vssd1 vccd1 vccd1 _1295_/D sky130_fd_sc_hd__clkbuf_1
XFILLER_25_559 vssd1 vssd1 vccd1 vccd1 sky130_fd_sc_hd__fill_1
X_1098_ _1263_/Q input13/X _1104_/S vssd1 vssd1 vccd1 vccd1 _1099_/A sky130_fd_sc_hd__mux2_1
XFILLER_12_209 vssd1 vccd1 vccd1 vssd1 sky130_ef_sc_hd__decap_12
XFILLER_20_242 vssd1 vssd1 vccd1 vccd1 sky130_fd_sc_hd__decap_4
XFILLER_20_253 vssd1 vssd1 vccd1 vccd1 sky130_fd_sc_hd__fill_1
XFILLER_5_909 vssd1 vccd1 vccd1 vssd1 sky130_ef_sc_hd__decap_12
XFILLER_20_297 vssd1 vssd1 vccd1 vccd1 sky130_fd_sc_hd__fill_1
XFILLER_4_419 vssd1 vssd1 vccd1 vccd1 sky130_fd_sc_hd__fill_1
XFILLER_29_821 vssd1 vccd1 vccd1 vssd1 sky130_ef_sc_hd__decap_12
XFILLER_18_53 vssd1 vccd1 vccd1 vssd1 sky130_ef_sc_hd__decap_12
XFILLER_29_865 vssd1 vccd1 vccd1 vssd1 sky130_ef_sc_hd__decap_12
XFILLER_44_813 vssd1 vccd1 vccd1 vssd1 sky130_ef_sc_hd__decap_12
XFILLER_18_97 vssd1 vccd1 vccd1 vssd1 sky130_ef_sc_hd__decap_12
XFILLER_31_529 vssd1 vccd1 vccd1 vssd1 sky130_ef_sc_hd__decap_12
XFILLER_34_41 vssd1 vccd1 vccd1 vssd1 sky130_ef_sc_hd__decap_12
XFILLER_34_85 vssd1 vccd1 vccd1 vssd1 sky130_ef_sc_hd__decap_12
XFILLER_8_725 vssd1 vccd1 vccd1 vssd1 sky130_ef_sc_hd__decap_12
XFILLER_8_769 vssd1 vccd1 vccd1 vssd1 sky130_ef_sc_hd__decap_12
XFILLER_7_279 vssd1 vssd1 vccd1 vccd1 sky130_fd_sc_hd__fill_1
XFILLER_3_441 vssd1 vssd1 vccd1 vccd1 sky130_fd_sc_hd__decap_6
XTAP_507 vssd1 vccd1 sky130_fd_sc_hd__tapvpwrvgnd_1
XFILLER_3_485 vssd1 vccd1 vccd1 vssd1 sky130_ef_sc_hd__decap_12
XTAP_518 vssd1 vccd1 sky130_fd_sc_hd__tapvpwrvgnd_1
XTAP_529 vssd1 vccd1 sky130_fd_sc_hd__tapvpwrvgnd_1
XFILLER_39_629 vssd1 vccd1 vccd1 vssd1 sky130_ef_sc_hd__decap_12
XFILLER_15_6 vssd1 vccd1 vccd1 vssd1 sky130_ef_sc_hd__decap_12
XFILLER_19_320 vssd1 vssd1 vccd1 vccd1 sky130_fd_sc_hd__decap_6
XFILLER_38_139 vssd1 vssd1 vccd1 vccd1 sky130_fd_sc_hd__fill_1
X_1021_ _1239_/Q _1025_/A vssd1 vssd1 vccd1 vccd1 _1021_/X sky130_fd_sc_hd__or2b_1
XFILLER_46_183 vssd1 vssd1 vccd1 vccd1 sky130_fd_sc_hd__fill_1
XFILLER_34_301 vssd1 vssd1 vccd1 vccd1 sky130_fd_sc_hd__decap_6
XFILLER_34_345 vssd1 vccd1 vccd1 vssd1 sky130_ef_sc_hd__decap_12
XFILLER_15_570 vssd1 vssd1 vccd1 vccd1 sky130_fd_sc_hd__decap_8
XFILLER_22_529 vssd1 vssd1 vccd1 vccd1 sky130_fd_sc_hd__decap_3
XFILLER_34_389 vssd1 vccd1 vccd1 vssd1 sky130_ef_sc_hd__decap_12
X_0805_ _0805_/A vssd1 vssd1 vccd1 vccd1 _0805_/X sky130_fd_sc_hd__clkbuf_2
X_0736_ _1288_/Q _0735_/X _0716_/X vssd1 vssd1 vccd1 vccd1 _0736_/X sky130_fd_sc_hd__a21o_1
X_0667_ _0810_/A vssd1 vssd1 vccd1 vccd1 _0760_/A sky130_fd_sc_hd__dlymetal6s2s_1
X_0598_ _0604_/A _1209_/Q vssd1 vssd1 vccd1 vccd1 _0599_/A sky130_fd_sc_hd__and2_1
XFILLER_44_109 vssd1 vccd1 vccd1 vssd1 sky130_ef_sc_hd__decap_12
X_1219_ _1306_/CLK _1219_/D vssd1 vssd1 vccd1 vccd1 _1219_/Q sky130_fd_sc_hd__dfxtp_2
XFILLER_26_802 vssd1 vssd1 vccd1 vccd1 sky130_fd_sc_hd__decap_8
XFILLER_26_813 vssd1 vccd1 vccd1 vssd1 sky130_ef_sc_hd__decap_12
XFILLER_37_161 vssd1 vssd1 vccd1 vccd1 sky130_fd_sc_hd__decap_6
XFILLER_20_65 vssd1 vccd1 vccd1 vssd1 sky130_ef_sc_hd__decap_12
XFILLER_1_934 vssd1 vssd1 vccd1 vccd1 sky130_fd_sc_hd__decap_3
XFILLER_0_477 vssd1 vssd1 vccd1 vccd1 sky130_fd_sc_hd__fill_2
XFILLER_29_30 vssd1 vccd1 vccd1 vssd1 sky130_ef_sc_hd__decap_12
XFILLER_29_673 vssd1 vccd1 vccd1 vssd1 sky130_ef_sc_hd__decap_12
XFILLER_44_643 vssd1 vssd1 vccd1 vccd1 sky130_fd_sc_hd__fill_1
XFILLER_32_805 vssd1 vssd1 vccd1 vccd1 sky130_fd_sc_hd__decap_6
XFILLER_32_849 vssd1 vccd1 vccd1 vssd1 sky130_ef_sc_hd__decap_12
XFILLER_31_337 vssd1 vccd1 vccd1 vssd1 sky130_ef_sc_hd__decap_12
XFILLER_8_533 vssd1 vccd1 vccd1 vssd1 sky130_ef_sc_hd__decap_12
XFILLER_40_893 vssd1 vccd1 vccd1 vssd1 sky130_ef_sc_hd__decap_12
XANTENNA_5 _0905_/X vssd1 vssd1 vccd1 vccd1 sky130_fd_sc_hd__diode_2
XTAP_304 vssd1 vccd1 sky130_fd_sc_hd__tapvpwrvgnd_1
XTAP_315 vssd1 vccd1 sky130_fd_sc_hd__tapvpwrvgnd_1
XFILLER_3_293 vssd1 vccd1 vccd1 vssd1 sky130_ef_sc_hd__decap_12
XTAP_326 vssd1 vccd1 sky130_fd_sc_hd__tapvpwrvgnd_1
XTAP_348 vssd1 vccd1 sky130_fd_sc_hd__tapvpwrvgnd_1
XTAP_337 vssd1 vccd1 sky130_fd_sc_hd__tapvpwrvgnd_1
XTAP_359 vssd1 vccd1 sky130_fd_sc_hd__tapvpwrvgnd_1
XFILLER_13_3 vssd1 vccd1 vccd1 vssd1 sky130_ef_sc_hd__decap_12
XFILLER_26_109 vssd1 vccd1 vccd1 vssd1 sky130_ef_sc_hd__decap_12
XFILLER_19_161 vssd1 vssd1 vccd1 vccd1 sky130_fd_sc_hd__decap_6
X_1004_ _0997_/B _1234_/Q vssd1 vssd1 vccd1 vccd1 _1004_/X sky130_fd_sc_hd__and2b_1
XFILLER_35_665 vssd1 vssd1 vccd1 vccd1 sky130_fd_sc_hd__decap_6
XFILLER_22_304 vssd1 vssd1 vccd1 vccd1 sky130_fd_sc_hd__decap_4
XFILLER_34_153 vssd1 vccd1 vccd1 vssd1 sky130_ef_sc_hd__decap_12
Xl1icache_32_324 vssd1 vssd1 vccd1 vccd1 l1icache_32_324/HI wb_bl_o[7] sky130_fd_sc_hd__conb_1
XFILLER_34_197 vssd1 vccd1 vccd1 vssd1 sky130_ef_sc_hd__decap_12
X_0719_ _0705_/X _0718_/Y _0713_/X vssd1 vssd1 vccd1 vccd1 _0719_/Y sky130_fd_sc_hd__a21oi_1
XTAP_871 vssd1 vccd1 sky130_fd_sc_hd__tapvpwrvgnd_1
XTAP_860 vssd1 vccd1 sky130_fd_sc_hd__tapvpwrvgnd_1
XTAP_893 vssd1 vccd1 sky130_fd_sc_hd__tapvpwrvgnd_1
XTAP_882 vssd1 vccd1 sky130_fd_sc_hd__tapvpwrvgnd_1
XFILLER_45_418 vssd1 vssd1 vccd1 vccd1 sky130_fd_sc_hd__decap_3
XFILLER_14_805 vssd1 vssd1 vccd1 vccd1 sky130_fd_sc_hd__decap_6
XFILLER_14_849 vssd1 vccd1 vccd1 vssd1 sky130_ef_sc_hd__decap_12
XFILLER_25_153 vssd1 vccd1 vccd1 vssd1 sky130_ef_sc_hd__decap_12
XFILLER_13_337 vssd1 vssd1 vccd1 vccd1 sky130_fd_sc_hd__decap_8
XFILLER_15_54 vssd1 vssd1 vccd1 vccd1 sky130_fd_sc_hd__fill_2
XFILLER_21_381 vssd1 vssd1 vccd1 vccd1 sky130_fd_sc_hd__decap_8
XFILLER_22_893 vssd1 vccd1 vccd1 vssd1 sky130_ef_sc_hd__decap_12
XFILLER_40_189 vssd1 vssd1 vccd1 vccd1 sky130_fd_sc_hd__decap_6
XFILLER_5_503 vssd1 vssd1 vccd1 vccd1 sky130_fd_sc_hd__fill_1
Xinput120 wb_dat_i[6] vssd1 vssd1 vccd1 vccd1 _0885_/A2 sky130_fd_sc_hd__clkbuf_2
XFILLER_1_797 vssd1 vccd1 vccd1 vssd1 sky130_ef_sc_hd__decap_12
XFILLER_17_665 vssd1 vssd1 vccd1 vccd1 sky130_fd_sc_hd__decap_6
XFILLER_32_613 vssd1 vccd1 vccd1 vssd1 sky130_ef_sc_hd__decap_12
XFILLER_16_197 vssd1 vccd1 vccd1 vssd1 sky130_ef_sc_hd__decap_12
XFILLER_32_657 vssd1 vccd1 vccd1 vssd1 sky130_ef_sc_hd__decap_12
XFILLER_31_167 vssd1 vssd1 vccd1 vccd1 sky130_fd_sc_hd__fill_1
XFILLER_9_853 vssd1 vccd1 vccd1 vssd1 sky130_ef_sc_hd__decap_12
XFILLER_12_381 vssd1 vssd1 vccd1 vccd1 sky130_fd_sc_hd__fill_1
XFILLER_9_897 vssd1 vccd1 vccd1 vssd1 sky130_ef_sc_hd__decap_12
XFILLER_8_363 vssd1 vssd1 vccd1 vccd1 sky130_fd_sc_hd__fill_1
XTAP_123 vssd1 vccd1 sky130_fd_sc_hd__tapvpwrvgnd_1
XTAP_101 vssd1 vccd1 sky130_fd_sc_hd__tapvpwrvgnd_1
XTAP_112 vssd1 vccd1 sky130_fd_sc_hd__tapvpwrvgnd_1
XTAP_156 vssd1 vccd1 sky130_fd_sc_hd__tapvpwrvgnd_1
XTAP_145 vssd1 vccd1 sky130_fd_sc_hd__tapvpwrvgnd_1
XTAP_134 vssd1 vccd1 sky130_fd_sc_hd__tapvpwrvgnd_1
XTAP_189 vssd1 vccd1 sky130_fd_sc_hd__tapvpwrvgnd_1
XTAP_178 vssd1 vccd1 sky130_fd_sc_hd__tapvpwrvgnd_1
XTAP_167 vssd1 vccd1 sky130_fd_sc_hd__tapvpwrvgnd_1
XFILLER_39_223 vssd1 vssd1 vccd1 vccd1 sky130_fd_sc_hd__fill_1
XFILLER_23_613 vssd1 vssd1 vccd1 vccd1 sky130_fd_sc_hd__decap_3
XFILLER_35_473 vssd1 vccd1 vccd1 vssd1 sky130_ef_sc_hd__decap_12
XFILLER_10_307 vssd1 vssd1 vccd1 vccd1 sky130_fd_sc_hd__fill_1
XFILLER_22_189 vssd1 vssd1 vccd1 vccd1 sky130_fd_sc_hd__decap_6
XFILLER_46_716 vssd1 vssd1 vccd1 vccd1 sky130_fd_sc_hd__decap_3
XTAP_690 vssd1 vccd1 sky130_fd_sc_hd__tapvpwrvgnd_1
XFILLER_45_237 vssd1 vssd1 vccd1 vccd1 sky130_fd_sc_hd__decap_8
XFILLER_26_440 vssd1 vssd1 vccd1 vccd1 sky130_fd_sc_hd__decap_3
Xclkbuf_3_6__f_clk clkbuf_0_clk/X vssd1 vssd1 vccd1 vccd1 _1293_/CLK sky130_fd_sc_hd__clkbuf_16
XFILLER_26_53 vssd1 vccd1 vccd1 vssd1 sky130_ef_sc_hd__decap_12
XFILLER_14_635 vssd1 vssd1 vccd1 vccd1 sky130_fd_sc_hd__decap_3
XFILLER_26_97 vssd1 vccd1 vccd1 vssd1 sky130_ef_sc_hd__decap_12
XFILLER_9_105 vssd1 vssd1 vccd1 vccd1 sky130_fd_sc_hd__decap_6
XFILLER_13_167 vssd1 vssd1 vccd1 vccd1 sky130_fd_sc_hd__fill_1
XFILLER_42_41 vssd1 vccd1 vccd1 vssd1 sky130_ef_sc_hd__decap_12
XFILLER_9_149 vssd1 vccd1 vccd1 vssd1 sky130_ef_sc_hd__decap_12
XFILLER_42_85 vssd1 vccd1 vccd1 vssd1 sky130_ef_sc_hd__decap_12
XFILLER_6_867 vssd1 vssd1 vccd1 vccd1 sky130_fd_sc_hd__fill_1
XFILLER_1_550 vssd1 vssd1 vccd1 vccd1 sky130_fd_sc_hd__decap_3
XFILLER_1_561 vssd1 vssd1 vccd1 vccd1 sky130_fd_sc_hd__fill_2
XFILLER_3_57 vssd1 vccd1 vccd1 vssd1 sky130_ef_sc_hd__decap_12
XFILLER_37_727 vssd1 vssd1 vccd1 vccd1 sky130_fd_sc_hd__fill_1
XFILLER_44_281 vssd1 vssd1 vccd1 vccd1 sky130_fd_sc_hd__decap_3
XFILLER_32_421 vssd1 vccd1 vccd1 vssd1 sky130_ef_sc_hd__decap_12
XFILLER_33_933 vssd1 vccd1 vccd1 vssd1 sky130_ef_sc_hd__decap_12
XFILLER_20_605 vssd1 vssd1 vccd1 vccd1 sky130_fd_sc_hd__decap_3
X_0984_ _1235_/Q input52/X _0988_/S vssd1 vssd1 vccd1 vccd1 _0985_/A sky130_fd_sc_hd__mux2_1
XFILLER_27_237 vssd1 vssd1 vccd1 vccd1 sky130_fd_sc_hd__decap_3
XFILLER_23_432 vssd1 vssd1 vccd1 vccd1 sky130_fd_sc_hd__decap_3
XFILLER_35_281 vssd1 vccd1 vccd1 vssd1 sky130_ef_sc_hd__decap_12
XFILLER_36_793 vssd1 vccd1 vccd1 vssd1 sky130_ef_sc_hd__decap_12
XFILLER_12_77 vssd1 vssd1 vccd1 vccd1 sky130_fd_sc_hd__decap_6
XFILLER_2_325 vssd1 vssd1 vccd1 vccd1 sky130_fd_sc_hd__fill_2
XFILLER_46_524 vssd1 vssd1 vccd1 vccd1 sky130_fd_sc_hd__decap_8
XFILLER_46_513 vssd1 vssd1 vccd1 vccd1 sky130_fd_sc_hd__fill_1
XFILLER_37_30 vssd1 vccd1 vccd1 vssd1 sky130_ef_sc_hd__decap_12
XFILLER_46_546 vssd1 vssd1 vccd1 vccd1 sky130_fd_sc_hd__decap_3
XFILLER_15_933 vssd1 vssd1 vccd1 vccd1 sky130_fd_sc_hd__decap_8
XFILLER_30_925 vssd1 vccd1 vccd1 vssd1 sky130_ef_sc_hd__decap_12
XFILLER_41_273 vssd1 vssd1 vccd1 vccd1 sky130_fd_sc_hd__decap_6
XFILLER_10_693 vssd1 vssd1 vccd1 vccd1 sky130_fd_sc_hd__decap_6
X_1321_ _1321_/A vssd1 vssd1 vccd1 vccd1 _1321_/X sky130_fd_sc_hd__clkbuf_1
XFILLER_2_881 vssd1 vccd1 vccd1 vssd1 sky130_ef_sc_hd__decap_12
XFILLER_1_391 vssd1 vssd1 vccd1 vccd1 sky130_fd_sc_hd__fill_1
X_1252_ _1293_/CLK _1252_/D vssd1 vssd1 vccd1 vccd1 _1252_/Q sky130_fd_sc_hd__dfxtp_1
X_1183_ _1183_/A vssd1 vssd1 vccd1 vccd1 _1192_/A sky130_fd_sc_hd__dlymetal6s2s_1
XFILLER_33_741 vssd1 vccd1 vccd1 vssd1 sky130_ef_sc_hd__decap_12
XFILLER_32_251 vssd1 vssd1 vccd1 vccd1 sky130_fd_sc_hd__fill_1
XFILLER_33_785 vssd1 vccd1 vccd1 vssd1 sky130_ef_sc_hd__decap_12
X_0967_ _0967_/A vssd1 vssd1 vccd1 vccd1 _1227_/D sky130_fd_sc_hd__clkbuf_1
Xoutput210 _1209_/Q vssd1 vssd1 vccd1 vccd1 resp_addr_o[1] sky130_fd_sc_hd__clkbuf_1
X_0898_ _0897_/X input98/X _0895_/X vssd1 vssd1 vccd1 vccd1 _0898_/X sky130_fd_sc_hd__a21o_1
Xoutput232 _1321_/X vssd1 vssd1 vccd1 vccd1 tag_chip_en sky130_fd_sc_hd__clkbuf_1
Xoutput221 _1210_/Q vssd1 vssd1 vccd1 vccd1 resp_addr_o[2] sky130_fd_sc_hd__clkbuf_1
Xoutput243 _0585_/X vssd1 vssd1 vccd1 vccd1 tag_data_in[19] sky130_fd_sc_hd__clkbuf_1
Xoutput265 _1331_/X vssd1 vssd1 vccd1 vccd1 tag_index[0] sky130_fd_sc_hd__clkbuf_1
Xoutput276 _0621_/X vssd1 vssd1 vccd1 vccd1 wb_adr_o[11] sky130_fd_sc_hd__clkbuf_1
Xoutput254 _1329_/X vssd1 vssd1 vccd1 vccd1 tag_data_in[29] sky130_fd_sc_hd__clkbuf_1
Xoutput298 _0664_/X vssd1 vssd1 vccd1 vccd1 wb_adr_o[31] sky130_fd_sc_hd__clkbuf_1
Xoutput287 _0643_/X vssd1 vssd1 vccd1 vccd1 wb_adr_o[21] sky130_fd_sc_hd__clkbuf_1
XFILLER_28_524 vssd1 vssd1 vccd1 vccd1 sky130_fd_sc_hd__decap_8
XFILLER_43_505 vssd1 vccd1 vccd1 vssd1 sky130_ef_sc_hd__decap_12
XFILLER_12_925 vssd1 vccd1 vccd1 vssd1 sky130_ef_sc_hd__decap_12
XFILLER_7_417 vssd1 vccd1 vccd1 vssd1 sky130_ef_sc_hd__decap_12
XFILLER_2_133 vssd1 vssd1 vccd1 vccd1 sky130_fd_sc_hd__decap_6
XFILLER_2_177 vssd1 vccd1 vccd1 vssd1 sky130_ef_sc_hd__decap_12
XFILLER_0_25 vssd1 vssd1 vccd1 vccd1 sky130_fd_sc_hd__decap_3
XFILLER_0_14 vssd1 vssd1 vccd1 vccd1 sky130_fd_sc_hd__fill_2
XFILLER_46_365 vssd1 vssd1 vccd1 vccd1 sky130_fd_sc_hd__fill_2
XFILLER_0_36 vssd1 vssd1 vccd1 vccd1 sky130_fd_sc_hd__decap_3
XFILLER_46_398 vssd1 vssd1 vccd1 vccd1 sky130_fd_sc_hd__decap_4
XFILLER_15_741 vssd1 vccd1 vccd1 vssd1 sky130_ef_sc_hd__decap_12
XFILLER_14_251 vssd1 vssd1 vccd1 vccd1 sky130_fd_sc_hd__fill_1
XFILLER_15_785 vssd1 vccd1 vccd1 vssd1 sky130_ef_sc_hd__decap_12
XFILLER_30_755 vssd1 vssd1 vccd1 vccd1 sky130_fd_sc_hd__fill_1
X_0821_ _1272_/Q vssd1 vssd1 vccd1 vccd1 _0821_/Y sky130_fd_sc_hd__inv_2
X_0752_ _0731_/X _0751_/Y _0738_/X vssd1 vssd1 vccd1 vccd1 _0752_/Y sky130_fd_sc_hd__a21oi_1
X_0683_ _0760_/A vssd1 vssd1 vccd1 vccd1 _0683_/X sky130_fd_sc_hd__dlymetal6s2s_1
X_1304_ _1306_/CLK _1304_/D vssd1 vssd1 vccd1 vccd1 _1304_/Q sky130_fd_sc_hd__dfxtp_1
XFILLER_38_811 vssd1 vssd1 vccd1 vccd1 sky130_fd_sc_hd__fill_1
X_1235_ _1305_/CLK _1235_/D vssd1 vssd1 vccd1 vccd1 _1235_/Q sky130_fd_sc_hd__dfxtp_2
XFILLER_25_516 vssd1 vccd1 vccd1 vssd1 sky130_ef_sc_hd__decap_12