*SPEF "ieee 1481-1999"
*DESIGN "bus_arbiter"
*DATE "11:11:11 Fri 11 11, 1111"
*VENDOR "OpenRCX"
*PROGRAM "Parallel Extraction"
*VERSION "1.0"
*DESIGN_FLOW "NAME_SCOPE LOCAL" "PIN_CAP NONE"
*DIVIDER /
*DELIMITER :
*BUS_DELIMITER []
*T_UNIT 1 NS
*C_UNIT 1 PF
*R_UNIT 1 OHM
*L_UNIT 1 HENRY

*NAME_MAP
*1 clk
*2 m2_dcache_wbd_ack_o
*3 m2_dcache_wbd_adr_i[0]
*4 m2_dcache_wbd_adr_i[10]
*5 m2_dcache_wbd_adr_i[11]
*6 m2_dcache_wbd_adr_i[12]
*7 m2_dcache_wbd_adr_i[13]
*8 m2_dcache_wbd_adr_i[14]
*9 m2_dcache_wbd_adr_i[15]
*10 m2_dcache_wbd_adr_i[16]
*11 m2_dcache_wbd_adr_i[17]
*12 m2_dcache_wbd_adr_i[18]
*13 m2_dcache_wbd_adr_i[19]
*14 m2_dcache_wbd_adr_i[1]
*15 m2_dcache_wbd_adr_i[20]
*16 m2_dcache_wbd_adr_i[21]
*17 m2_dcache_wbd_adr_i[22]
*18 m2_dcache_wbd_adr_i[23]
*19 m2_dcache_wbd_adr_i[24]
*20 m2_dcache_wbd_adr_i[25]
*21 m2_dcache_wbd_adr_i[26]
*22 m2_dcache_wbd_adr_i[27]
*23 m2_dcache_wbd_adr_i[28]
*24 m2_dcache_wbd_adr_i[29]
*25 m2_dcache_wbd_adr_i[2]
*26 m2_dcache_wbd_adr_i[30]
*27 m2_dcache_wbd_adr_i[31]
*28 m2_dcache_wbd_adr_i[3]
*29 m2_dcache_wbd_adr_i[4]
*30 m2_dcache_wbd_adr_i[5]
*31 m2_dcache_wbd_adr_i[6]
*32 m2_dcache_wbd_adr_i[7]
*33 m2_dcache_wbd_adr_i[8]
*34 m2_dcache_wbd_adr_i[9]
*35 m2_dcache_wbd_cyc_i
*36 m2_dcache_wbd_dat_i[0]
*37 m2_dcache_wbd_dat_i[10]
*38 m2_dcache_wbd_dat_i[11]
*39 m2_dcache_wbd_dat_i[12]
*40 m2_dcache_wbd_dat_i[13]
*41 m2_dcache_wbd_dat_i[14]
*42 m2_dcache_wbd_dat_i[15]
*43 m2_dcache_wbd_dat_i[16]
*44 m2_dcache_wbd_dat_i[17]
*45 m2_dcache_wbd_dat_i[18]
*46 m2_dcache_wbd_dat_i[19]
*47 m2_dcache_wbd_dat_i[1]
*48 m2_dcache_wbd_dat_i[20]
*49 m2_dcache_wbd_dat_i[21]
*50 m2_dcache_wbd_dat_i[22]
*51 m2_dcache_wbd_dat_i[23]
*52 m2_dcache_wbd_dat_i[24]
*53 m2_dcache_wbd_dat_i[25]
*54 m2_dcache_wbd_dat_i[26]
*55 m2_dcache_wbd_dat_i[27]
*56 m2_dcache_wbd_dat_i[28]
*57 m2_dcache_wbd_dat_i[29]
*58 m2_dcache_wbd_dat_i[2]
*59 m2_dcache_wbd_dat_i[30]
*60 m2_dcache_wbd_dat_i[31]
*61 m2_dcache_wbd_dat_i[3]
*62 m2_dcache_wbd_dat_i[4]
*63 m2_dcache_wbd_dat_i[5]
*64 m2_dcache_wbd_dat_i[6]
*65 m2_dcache_wbd_dat_i[7]
*66 m2_dcache_wbd_dat_i[8]
*67 m2_dcache_wbd_dat_i[9]
*68 m2_dcache_wbd_dat_o[0]
*69 m2_dcache_wbd_dat_o[10]
*70 m2_dcache_wbd_dat_o[11]
*71 m2_dcache_wbd_dat_o[12]
*72 m2_dcache_wbd_dat_o[13]
*73 m2_dcache_wbd_dat_o[14]
*74 m2_dcache_wbd_dat_o[15]
*75 m2_dcache_wbd_dat_o[16]
*76 m2_dcache_wbd_dat_o[17]
*77 m2_dcache_wbd_dat_o[18]
*78 m2_dcache_wbd_dat_o[19]
*79 m2_dcache_wbd_dat_o[1]
*80 m2_dcache_wbd_dat_o[20]
*81 m2_dcache_wbd_dat_o[21]
*82 m2_dcache_wbd_dat_o[22]
*83 m2_dcache_wbd_dat_o[23]
*84 m2_dcache_wbd_dat_o[24]
*85 m2_dcache_wbd_dat_o[25]
*86 m2_dcache_wbd_dat_o[26]
*87 m2_dcache_wbd_dat_o[27]
*88 m2_dcache_wbd_dat_o[28]
*89 m2_dcache_wbd_dat_o[29]
*90 m2_dcache_wbd_dat_o[2]
*91 m2_dcache_wbd_dat_o[30]
*92 m2_dcache_wbd_dat_o[31]
*93 m2_dcache_wbd_dat_o[3]
*94 m2_dcache_wbd_dat_o[4]
*95 m2_dcache_wbd_dat_o[5]
*96 m2_dcache_wbd_dat_o[6]
*97 m2_dcache_wbd_dat_o[7]
*98 m2_dcache_wbd_dat_o[8]
*99 m2_dcache_wbd_dat_o[9]
*100 m2_dcache_wbd_sel_i[0]
*101 m2_dcache_wbd_sel_i[1]
*102 m2_dcache_wbd_sel_i[2]
*103 m2_dcache_wbd_sel_i[3]
*104 m2_dcache_wbd_stb_i
*105 m2_dcache_wbd_we_i
*106 m2_others_wbd_ack_o
*107 m2_others_wbd_adr_i[0]
*108 m2_others_wbd_adr_i[10]
*109 m2_others_wbd_adr_i[11]
*110 m2_others_wbd_adr_i[12]
*111 m2_others_wbd_adr_i[13]
*112 m2_others_wbd_adr_i[14]
*113 m2_others_wbd_adr_i[15]
*114 m2_others_wbd_adr_i[16]
*115 m2_others_wbd_adr_i[17]
*116 m2_others_wbd_adr_i[18]
*117 m2_others_wbd_adr_i[19]
*118 m2_others_wbd_adr_i[1]
*119 m2_others_wbd_adr_i[20]
*120 m2_others_wbd_adr_i[21]
*121 m2_others_wbd_adr_i[22]
*122 m2_others_wbd_adr_i[23]
*123 m2_others_wbd_adr_i[24]
*124 m2_others_wbd_adr_i[25]
*125 m2_others_wbd_adr_i[26]
*126 m2_others_wbd_adr_i[27]
*127 m2_others_wbd_adr_i[28]
*128 m2_others_wbd_adr_i[29]
*129 m2_others_wbd_adr_i[2]
*130 m2_others_wbd_adr_i[30]
*131 m2_others_wbd_adr_i[31]
*132 m2_others_wbd_adr_i[3]
*133 m2_others_wbd_adr_i[4]
*134 m2_others_wbd_adr_i[5]
*135 m2_others_wbd_adr_i[6]
*136 m2_others_wbd_adr_i[7]
*137 m2_others_wbd_adr_i[8]
*138 m2_others_wbd_adr_i[9]
*139 m2_others_wbd_cyc_i
*140 m2_others_wbd_dat_i[0]
*141 m2_others_wbd_dat_i[10]
*142 m2_others_wbd_dat_i[11]
*143 m2_others_wbd_dat_i[12]
*144 m2_others_wbd_dat_i[13]
*145 m2_others_wbd_dat_i[14]
*146 m2_others_wbd_dat_i[15]
*147 m2_others_wbd_dat_i[16]
*148 m2_others_wbd_dat_i[17]
*149 m2_others_wbd_dat_i[18]
*150 m2_others_wbd_dat_i[19]
*151 m2_others_wbd_dat_i[1]
*152 m2_others_wbd_dat_i[20]
*153 m2_others_wbd_dat_i[21]
*154 m2_others_wbd_dat_i[22]
*155 m2_others_wbd_dat_i[23]
*156 m2_others_wbd_dat_i[24]
*157 m2_others_wbd_dat_i[25]
*158 m2_others_wbd_dat_i[26]
*159 m2_others_wbd_dat_i[27]
*160 m2_others_wbd_dat_i[28]
*161 m2_others_wbd_dat_i[29]
*162 m2_others_wbd_dat_i[2]
*163 m2_others_wbd_dat_i[30]
*164 m2_others_wbd_dat_i[31]
*165 m2_others_wbd_dat_i[3]
*166 m2_others_wbd_dat_i[4]
*167 m2_others_wbd_dat_i[5]
*168 m2_others_wbd_dat_i[6]
*169 m2_others_wbd_dat_i[7]
*170 m2_others_wbd_dat_i[8]
*171 m2_others_wbd_dat_i[9]
*172 m2_others_wbd_dat_o[0]
*173 m2_others_wbd_dat_o[10]
*174 m2_others_wbd_dat_o[11]
*175 m2_others_wbd_dat_o[12]
*176 m2_others_wbd_dat_o[13]
*177 m2_others_wbd_dat_o[14]
*178 m2_others_wbd_dat_o[15]
*179 m2_others_wbd_dat_o[16]
*180 m2_others_wbd_dat_o[17]
*181 m2_others_wbd_dat_o[18]
*182 m2_others_wbd_dat_o[19]
*183 m2_others_wbd_dat_o[1]
*184 m2_others_wbd_dat_o[20]
*185 m2_others_wbd_dat_o[21]
*186 m2_others_wbd_dat_o[22]
*187 m2_others_wbd_dat_o[23]
*188 m2_others_wbd_dat_o[24]
*189 m2_others_wbd_dat_o[25]
*190 m2_others_wbd_dat_o[26]
*191 m2_others_wbd_dat_o[27]
*192 m2_others_wbd_dat_o[28]
*193 m2_others_wbd_dat_o[29]
*194 m2_others_wbd_dat_o[2]
*195 m2_others_wbd_dat_o[30]
*196 m2_others_wbd_dat_o[31]
*197 m2_others_wbd_dat_o[3]
*198 m2_others_wbd_dat_o[4]
*199 m2_others_wbd_dat_o[5]
*200 m2_others_wbd_dat_o[6]
*201 m2_others_wbd_dat_o[7]
*202 m2_others_wbd_dat_o[8]
*203 m2_others_wbd_dat_o[9]
*204 m2_others_wbd_sel_i[0]
*205 m2_others_wbd_sel_i[1]
*206 m2_others_wbd_sel_i[2]
*207 m2_others_wbd_sel_i[3]
*208 m2_others_wbd_stb_i
*209 m2_others_wbd_we_i
*210 m2_wbd_ack_i
*211 m2_wbd_adr_o[0]
*212 m2_wbd_adr_o[10]
*213 m2_wbd_adr_o[11]
*214 m2_wbd_adr_o[12]
*215 m2_wbd_adr_o[13]
*216 m2_wbd_adr_o[14]
*217 m2_wbd_adr_o[15]
*218 m2_wbd_adr_o[16]
*219 m2_wbd_adr_o[17]
*220 m2_wbd_adr_o[18]
*221 m2_wbd_adr_o[19]
*222 m2_wbd_adr_o[1]
*223 m2_wbd_adr_o[20]
*224 m2_wbd_adr_o[21]
*225 m2_wbd_adr_o[22]
*226 m2_wbd_adr_o[23]
*227 m2_wbd_adr_o[24]
*228 m2_wbd_adr_o[25]
*229 m2_wbd_adr_o[26]
*230 m2_wbd_adr_o[27]
*231 m2_wbd_adr_o[28]
*232 m2_wbd_adr_o[29]
*233 m2_wbd_adr_o[2]
*234 m2_wbd_adr_o[30]
*235 m2_wbd_adr_o[31]
*236 m2_wbd_adr_o[3]
*237 m2_wbd_adr_o[4]
*238 m2_wbd_adr_o[5]
*239 m2_wbd_adr_o[6]
*240 m2_wbd_adr_o[7]
*241 m2_wbd_adr_o[8]
*242 m2_wbd_adr_o[9]
*243 m2_wbd_bl_o[0]
*244 net316
*245 net317
*246 net318
*247 net319
*248 net320
*249 net321
*250 net322
*251 net323
*252 net324
*253 m2_wbd_bry_o
*254 m2_wbd_cyc_o
*255 m2_wbd_dat_i[0]
*256 m2_wbd_dat_i[10]
*257 m2_wbd_dat_i[11]
*258 m2_wbd_dat_i[12]
*259 m2_wbd_dat_i[13]
*260 m2_wbd_dat_i[14]
*261 m2_wbd_dat_i[15]
*262 m2_wbd_dat_i[16]
*263 m2_wbd_dat_i[17]
*264 m2_wbd_dat_i[18]
*265 m2_wbd_dat_i[19]
*266 m2_wbd_dat_i[1]
*267 m2_wbd_dat_i[20]
*268 m2_wbd_dat_i[21]
*269 m2_wbd_dat_i[22]
*270 m2_wbd_dat_i[23]
*271 m2_wbd_dat_i[24]
*272 m2_wbd_dat_i[25]
*273 m2_wbd_dat_i[26]
*274 m2_wbd_dat_i[27]
*275 m2_wbd_dat_i[28]
*276 m2_wbd_dat_i[29]
*277 m2_wbd_dat_i[2]
*278 m2_wbd_dat_i[30]
*279 m2_wbd_dat_i[31]
*280 m2_wbd_dat_i[3]
*281 m2_wbd_dat_i[4]
*282 m2_wbd_dat_i[5]
*283 m2_wbd_dat_i[6]
*284 m2_wbd_dat_i[7]
*285 m2_wbd_dat_i[8]
*286 m2_wbd_dat_i[9]
*287 m2_wbd_dat_o[0]
*288 m2_wbd_dat_o[10]
*289 m2_wbd_dat_o[11]
*290 m2_wbd_dat_o[12]
*291 m2_wbd_dat_o[13]
*292 m2_wbd_dat_o[14]
*293 m2_wbd_dat_o[15]
*294 m2_wbd_dat_o[16]
*295 m2_wbd_dat_o[17]
*296 m2_wbd_dat_o[18]
*297 m2_wbd_dat_o[19]
*298 m2_wbd_dat_o[1]
*299 m2_wbd_dat_o[20]
*300 m2_wbd_dat_o[21]
*301 m2_wbd_dat_o[22]
*302 m2_wbd_dat_o[23]
*303 m2_wbd_dat_o[24]
*304 m2_wbd_dat_o[25]
*305 m2_wbd_dat_o[26]
*306 m2_wbd_dat_o[27]
*307 m2_wbd_dat_o[28]
*308 m2_wbd_dat_o[29]
*309 m2_wbd_dat_o[2]
*310 m2_wbd_dat_o[30]
*311 m2_wbd_dat_o[31]
*312 m2_wbd_dat_o[3]
*313 m2_wbd_dat_o[4]
*314 m2_wbd_dat_o[5]
*315 m2_wbd_dat_o[6]
*316 m2_wbd_dat_o[7]
*317 m2_wbd_dat_o[8]
*318 m2_wbd_dat_o[9]
*319 m2_wbd_sel_o[0]
*320 m2_wbd_sel_o[1]
*321 m2_wbd_sel_o[2]
*322 m2_wbd_sel_o[3]
*323 m2_wbd_stb_o
*324 m2_wbd_we_o
*325 reset
*328 _000_
*329 _001_
*330 _002_
*331 _003_
*332 _004_
*333 _005_
*334 _006_
*335 _007_
*336 _008_
*337 _009_
*338 _010_
*339 _011_
*340 _012_
*341 _013_
*342 _014_
*343 _015_
*344 _016_
*345 _017_
*346 _018_
*347 _019_
*348 _020_
*349 _021_
*350 _022_
*351 _023_
*352 _024_
*353 _025_
*354 _026_
*355 _027_
*356 _028_
*357 _029_
*358 _030_
*359 _031_
*360 _032_
*361 _033_
*362 _034_
*363 _035_
*364 _036_
*365 _037_
*366 _038_
*367 _039_
*368 _040_
*369 _041_
*370 _042_
*371 _043_
*372 _044_
*373 _045_
*374 _046_
*375 _047_
*376 _048_
*377 _049_
*378 _050_
*379 _051_
*380 _052_
*381 _053_
*382 _054_
*383 _055_
*384 _056_
*385 _057_
*386 _058_
*387 _059_
*388 _060_
*389 _061_
*390 _062_
*391 _063_
*392 _064_
*393 _065_
*394 _066_
*395 _067_
*396 _068_
*397 _069_
*398 _070_
*399 _071_
*400 _072_
*401 _073_
*402 _074_
*403 _075_
*404 _076_
*405 _077_
*406 _078_
*407 _079_
*408 _080_
*409 _081_
*410 _082_
*411 _083_
*412 _084_
*413 _085_
*414 _086_
*415 _087_
*416 _088_
*417 _089_
*418 _090_
*419 _091_
*420 _092_
*421 _093_
*422 _094_
*423 _095_
*424 _096_
*425 _097_
*426 _098_
*427 _099_
*428 _100_
*429 _101_
*430 _102_
*431 _103_
*432 _104_
*433 _105_
*434 clknet_0_clk
*435 clknet_1_0__leaf_clk
*436 clknet_1_1__leaf_clk
*437 lock\[0\]
*438 lock\[1\]
*439 lock\[2\]
*440 m2_wb_sel_ff
*441 net1
*442 net10
*443 net100
*444 net101
*445 net102
*446 net103
*447 net104
*448 net105
*449 net106
*450 net107
*451 net108
*452 net109
*453 net11
*454 net110
*455 net111
*456 net112
*457 net113
*458 net114
*459 net115
*460 net116
*461 net117
*462 net118
*463 net119
*464 net12
*465 net120
*466 net121
*467 net122
*468 net123
*469 net124
*470 net125
*471 net126
*472 net127
*473 net128
*474 net129
*475 net13
*476 net130
*477 net131
*478 net132
*479 net133
*480 net134
*481 net135
*482 net136
*483 net137
*484 net138
*485 net139
*486 net14
*487 net140
*488 net141
*489 net142
*490 net143
*491 net144
*492 net145
*493 net146
*494 net147
*495 net148
*496 net149
*497 net15
*498 net150
*499 net151
*500 net152
*501 net153
*502 net154
*503 net155
*504 net156
*505 net157
*506 net158
*507 net159
*508 net16
*509 net160
*510 net161
*511 net162
*512 net163
*513 net164
*514 net165
*515 net166
*516 net167
*517 net168
*518 net169
*519 net17
*520 net170
*521 net171
*522 net172
*523 net173
*524 net174
*525 net175
*526 net176
*527 net177
*528 net178
*529 net179
*530 net18
*531 net180
*532 net181
*533 net182
*534 net183
*535 net184
*536 net185
*537 net186
*538 net187
*539 net188
*540 net189
*541 net19
*542 net190
*543 net191
*544 net192
*545 net193
*546 net194
*547 net195
*548 net196
*549 net197
*550 net198
*551 net199
*552 net2
*553 net20
*554 net200
*555 net201
*556 net202
*557 net203
*558 net204
*559 net205
*560 net206
*561 net207
*562 net208
*563 net209
*564 net21
*565 net210
*566 net211
*567 net212
*568 net213
*569 net214
*570 net215
*571 net216
*572 net217
*573 net218
*574 net219
*575 net22
*576 net220
*577 net221
*578 net222
*579 net223
*580 net224
*581 net225
*582 net226
*583 net227
*584 net228
*585 net229
*586 net23
*587 net230
*588 net231
*589 net232
*590 net233
*591 net234
*592 net235
*593 net236
*594 net237
*595 net238
*596 net239
*597 net24
*598 net240
*599 net241
*600 net242
*601 net243
*602 net244
*603 net245
*604 net246
*605 net247
*606 net248
*607 net249
*608 net25
*609 net250
*610 net251
*611 net252
*612 net253
*613 net254
*614 net255
*615 net256
*616 net257
*617 net258
*618 net259
*619 net26
*620 net260
*621 net261
*622 net262
*623 net263
*624 net264
*625 net265
*626 net266
*627 net267
*628 net268
*629 net269
*630 net27
*631 net270
*632 net271
*633 net272
*634 net273
*635 net274
*636 net275
*637 net276
*638 net277
*639 net278
*640 net279
*641 net28
*642 net280
*643 net281
*644 net282
*645 net283
*646 net284
*647 net285
*648 net286
*649 net287
*650 net288
*651 net289
*652 net29
*653 net290
*654 net291
*655 net292
*656 net293
*657 net294
*658 net295
*659 net296
*660 net297
*661 net298
*662 net299
*663 net3
*664 net30
*665 net300
*666 net301
*667 net302
*668 net303
*669 net304
*670 net305
*671 net306
*672 net307
*673 net308
*674 net309
*675 net31
*676 net310
*677 net311
*678 net312
*679 net313
*680 net314
*681 net315
*682 net32
*683 net33
*684 net34
*685 net35
*686 net36
*687 net37
*688 net38
*689 net39
*690 net4
*691 net40
*692 net41
*693 net42
*694 net43
*695 net44
*696 net45
*697 net46
*698 net47
*699 net48
*700 net49
*701 net5
*702 net50
*703 net51
*704 net52
*705 net53
*706 net54
*707 net55
*708 net56
*709 net57
*710 net58
*711 net59
*712 net6
*713 net60
*714 net61
*715 net62
*716 net63
*717 net64
*718 net65
*719 net66
*720 net67
*721 net68
*722 net69
*723 net7
*724 net70
*725 net71
*726 net72
*727 net73
*728 net74
*729 net75
*730 net76
*731 net77
*732 net78
*733 net79
*734 net8
*735 net80
*736 net81
*737 net82
*738 net83
*739 net84
*740 net85
*741 net86
*742 net87
*743 net88
*744 net89
*745 net9
*746 net90
*747 net91
*748 net92
*749 net93
*750 net94
*751 net95
*752 net96
*753 net97
*754 net98
*755 net99
*756 ANTENNA_0
*757 ANTENNA_1
*758 ANTENNA_10
*759 ANTENNA_11
*760 ANTENNA_12
*761 ANTENNA_13
*762 ANTENNA_14
*763 ANTENNA_15
*764 ANTENNA_16
*765 ANTENNA_17
*766 ANTENNA_18
*767 ANTENNA_19
*768 ANTENNA_2
*769 ANTENNA_20
*770 ANTENNA_21
*771 ANTENNA_22
*772 ANTENNA_23
*773 ANTENNA_24
*774 ANTENNA_25
*775 ANTENNA_26
*776 ANTENNA_27
*777 ANTENNA_28
*778 ANTENNA_29
*779 ANTENNA_3
*780 ANTENNA_30
*781 ANTENNA_31
*782 ANTENNA_32
*783 ANTENNA_33
*784 ANTENNA_34
*785 ANTENNA_35
*786 ANTENNA_36
*787 ANTENNA_37
*788 ANTENNA_38
*789 ANTENNA_39
*790 ANTENNA_4
*791 ANTENNA_40
*792 ANTENNA_41
*793 ANTENNA_42
*794 ANTENNA_43
*795 ANTENNA_44
*796 ANTENNA_45
*797 ANTENNA_46
*798 ANTENNA_47
*799 ANTENNA_48
*800 ANTENNA_49
*801 ANTENNA_5
*802 ANTENNA_50
*803 ANTENNA_51
*804 ANTENNA_52
*805 ANTENNA_53
*806 ANTENNA_54
*807 ANTENNA_55
*808 ANTENNA_56
*809 ANTENNA_57
*810 ANTENNA_58
*811 ANTENNA_59
*812 ANTENNA_6
*813 ANTENNA_60
*814 ANTENNA_61
*815 ANTENNA_62
*816 ANTENNA_63
*817 ANTENNA_64
*818 ANTENNA_65
*819 ANTENNA_66
*820 ANTENNA_67
*821 ANTENNA_68
*822 ANTENNA_69
*823 ANTENNA_7
*824 ANTENNA_70
*825 ANTENNA_71
*826 ANTENNA_72
*827 ANTENNA_73
*828 ANTENNA_74
*829 ANTENNA_75
*830 ANTENNA_76
*831 ANTENNA_77
*832 ANTENNA_8
*833 ANTENNA_9
*834 FILLER_0_1001
*835 FILLER_0_1007
*836 FILLER_0_1009
*837 FILLER_0_1014
*838 FILLER_0_102
*839 FILLER_0_1024
*840 FILLER_0_1028
*841 FILLER_0_1032
*842 FILLER_0_1037
*843 FILLER_0_1045
*844 FILLER_0_1057
*845 FILLER_0_1063
*846 FILLER_0_1065
*847 FILLER_0_1073
*848 FILLER_0_1079
*849 FILLER_0_108
*850 FILLER_0_1085
*851 FILLER_0_1091
*852 FILLER_0_1093
*853 FILLER_0_1103
*854 FILLER_0_1113
*855 FILLER_0_1119
*856 FILLER_0_1121
*857 FILLER_0_1126
*858 FILLER_0_113
*859 FILLER_0_1134
*860 FILLER_0_1141
*861 FILLER_0_1147
*862 FILLER_0_1152
*863 FILLER_0_1159
*864 FILLER_0_1166
*865 FILLER_0_1174
*866 FILLER_0_1177
*867 FILLER_0_1185
*868 FILLER_0_119
*869 FILLER_0_1197
*870 FILLER_0_1203
*871 FILLER_0_1205
*872 FILLER_0_1217
*873 FILLER_0_1224
*874 FILLER_0_1236
*875 FILLER_0_1246
*876 FILLER_0_1256
*877 FILLER_0_126
*878 FILLER_0_1261
*879 FILLER_0_1271
*880 FILLER_0_13
*881 FILLER_0_138
*882 FILLER_0_141
*883 FILLER_0_151
*884 FILLER_0_160
*885 FILLER_0_172
*886 FILLER_0_181
*887 FILLER_0_188
*888 FILLER_0_200
*889 FILLER_0_204
*890 FILLER_0_216
*891 FILLER_0_22
*892 FILLER_0_225
*893 FILLER_0_230
*894 FILLER_0_237
*895 FILLER_0_244
*896 FILLER_0_253
*897 FILLER_0_258
*898 FILLER_0_266
*899 FILLER_0_272
*900 FILLER_0_276
*901 FILLER_0_290
*902 FILLER_0_297
*903 FILLER_0_304
*904 FILLER_0_309
*905 FILLER_0_314
*906 FILLER_0_32
*907 FILLER_0_325
*908 FILLER_0_332
*909 FILLER_0_346
*910 FILLER_0_350
*911 FILLER_0_356
*912 FILLER_0_375
*913 FILLER_0_388
*914 FILLER_0_393
*915 FILLER_0_398
*916 FILLER_0_404
*917 FILLER_0_409
*918 FILLER_0_416
*919 FILLER_0_421
*920 FILLER_0_433
*921 FILLER_0_437
*922 FILLER_0_443
*923 FILLER_0_447
*924 FILLER_0_459
*925 FILLER_0_467
*926 FILLER_0_472
*927 FILLER_0_477
*928 FILLER_0_48
*929 FILLER_0_485
*930 FILLER_0_489
*931 FILLER_0_500
*932 FILLER_0_514
*933 FILLER_0_520
*934 FILLER_0_524
*935 FILLER_0_536
*936 FILLER_0_543
*937 FILLER_0_556
*938 FILLER_0_57
*939 FILLER_0_570
*940 FILLER_0_577
*941 FILLER_0_584
*942 FILLER_0_589
*943 FILLER_0_593
*944 FILLER_0_598
*945 FILLER_0_612
*946 FILLER_0_617
*947 FILLER_0_623
*948 FILLER_0_636
*949 FILLER_0_645
*950 FILLER_0_656
*951 FILLER_0_66
*952 FILLER_0_663
*953 FILLER_0_671
*954 FILLER_0_673
*955 FILLER_0_678
*956 FILLER_0_685
*957 FILLER_0_692
*958 FILLER_0_701
*959 FILLER_0_706
*960 FILLER_0_711
*961 FILLER_0_722
*962 FILLER_0_729
*963 FILLER_0_735
*964 FILLER_0_739
*965 FILLER_0_74
*966 FILLER_0_750
*967 FILLER_0_754
*968 FILLER_0_760
*969 FILLER_0_764
*970 FILLER_0_775
*971 FILLER_0_779
*972 FILLER_0_78
*973 FILLER_0_783
*974 FILLER_0_785
*975 FILLER_0_793
*976 FILLER_0_801
*977 FILLER_0_813
*978 FILLER_0_818
*979 FILLER_0_82
*980 FILLER_0_829
*981 FILLER_0_836
*982 FILLER_0_841
*983 FILLER_0_846
*984 FILLER_0_85
*985 FILLER_0_853
*986 FILLER_0_865
*987 FILLER_0_879
*988 FILLER_0_887
*989 FILLER_0_895
*990 FILLER_0_901
*991 FILLER_0_908
*992 FILLER_0_91
*993 FILLER_0_912
*994 FILLER_0_916
*995 FILLER_0_928
*996 FILLER_0_936
*997 FILLER_0_948
*998 FILLER_0_95
*999 FILLER_0_956
*1000 FILLER_0_965
*1001 FILLER_0_972
*1002 FILLER_0_981
*1003 FILLER_0_986
*1004 FILLER_0_993
*1005 FILLER_10_1005
*1006 FILLER_10_1017
*1007 FILLER_10_1029
*1008 FILLER_10_1035
*1009 FILLER_10_1037
*1010 FILLER_10_1049
*1011 FILLER_10_1061
*1012 FILLER_10_1073
*1013 FILLER_10_1085
*1014 FILLER_10_109
*1015 FILLER_10_1091
*1016 FILLER_10_1093
*1017 FILLER_10_1105
*1018 FILLER_10_1117
*1019 FILLER_10_1129
*1020 FILLER_10_1141
*1021 FILLER_10_1147
*1022 FILLER_10_1149
*1023 FILLER_10_1161
*1024 FILLER_10_1173
*1025 FILLER_10_1185
*1026 FILLER_10_1197
*1027 FILLER_10_1203
*1028 FILLER_10_1205
*1029 FILLER_10_121
*1030 FILLER_10_1217
*1031 FILLER_10_1229
*1032 FILLER_10_1241
*1033 FILLER_10_1253
*1034 FILLER_10_1259
*1035 FILLER_10_1261
*1036 FILLER_10_1273
*1037 FILLER_10_13
*1038 FILLER_10_133
*1039 FILLER_10_139
*1040 FILLER_10_141
*1041 FILLER_10_153
*1042 FILLER_10_165
*1043 FILLER_10_177
*1044 FILLER_10_189
*1045 FILLER_10_195
*1046 FILLER_10_197
*1047 FILLER_10_209
*1048 FILLER_10_221
*1049 FILLER_10_233
*1050 FILLER_10_245
*1051 FILLER_10_25
*1052 FILLER_10_251
*1053 FILLER_10_253
*1054 FILLER_10_265
*1055 FILLER_10_277
*1056 FILLER_10_289
*1057 FILLER_10_29
*1058 FILLER_10_301
*1059 FILLER_10_307
*1060 FILLER_10_309
*1061 FILLER_10_320
*1062 FILLER_10_324
*1063 FILLER_10_336
*1064 FILLER_10_348
*1065 FILLER_10_360
*1066 FILLER_10_365
*1067 FILLER_10_377
*1068 FILLER_10_389
*1069 FILLER_10_401
*1070 FILLER_10_41
*1071 FILLER_10_413
*1072 FILLER_10_419
*1073 FILLER_10_421
*1074 FILLER_10_433
*1075 FILLER_10_445
*1076 FILLER_10_457
*1077 FILLER_10_469
*1078 FILLER_10_475
*1079 FILLER_10_477
*1080 FILLER_10_489
*1081 FILLER_10_501
*1082 FILLER_10_513
*1083 FILLER_10_525
*1084 FILLER_10_53
*1085 FILLER_10_531
*1086 FILLER_10_533
*1087 FILLER_10_545
*1088 FILLER_10_557
*1089 FILLER_10_569
*1090 FILLER_10_581
*1091 FILLER_10_587
*1092 FILLER_10_589
*1093 FILLER_10_601
*1094 FILLER_10_613
*1095 FILLER_10_625
*1096 FILLER_10_637
*1097 FILLER_10_643
*1098 FILLER_10_645
*1099 FILLER_10_65
*1100 FILLER_10_657
*1101 FILLER_10_669
*1102 FILLER_10_681
*1103 FILLER_10_693
*1104 FILLER_10_699
*1105 FILLER_10_701
*1106 FILLER_10_713
*1107 FILLER_10_725
*1108 FILLER_10_737
*1109 FILLER_10_749
*1110 FILLER_10_755
*1111 FILLER_10_757
*1112 FILLER_10_769
*1113 FILLER_10_77
*1114 FILLER_10_781
*1115 FILLER_10_793
*1116 FILLER_10_805
*1117 FILLER_10_811
*1118 FILLER_10_813
*1119 FILLER_10_821
*1120 FILLER_10_828
*1121 FILLER_10_83
*1122 FILLER_10_840
*1123 FILLER_10_85
*1124 FILLER_10_852
*1125 FILLER_10_864
*1126 FILLER_10_869
*1127 FILLER_10_881
*1128 FILLER_10_893
*1129 FILLER_10_905
*1130 FILLER_10_917
*1131 FILLER_10_923
*1132 FILLER_10_925
*1133 FILLER_10_937
*1134 FILLER_10_949
*1135 FILLER_10_961
*1136 FILLER_10_97
*1137 FILLER_10_973
*1138 FILLER_10_979
*1139 FILLER_10_981
*1140 FILLER_10_993
*1141 FILLER_11_1001
*1142 FILLER_11_1007
*1143 FILLER_11_1009
*1144 FILLER_11_1021
*1145 FILLER_11_1033
*1146 FILLER_11_1045
*1147 FILLER_11_105
*1148 FILLER_11_1057
*1149 FILLER_11_1063
*1150 FILLER_11_1065
*1151 FILLER_11_1077
*1152 FILLER_11_1089
*1153 FILLER_11_1101
*1154 FILLER_11_111
*1155 FILLER_11_1113
*1156 FILLER_11_1119
*1157 FILLER_11_1121
*1158 FILLER_11_113
*1159 FILLER_11_1133
*1160 FILLER_11_1145
*1161 FILLER_11_1157
*1162 FILLER_11_1169
*1163 FILLER_11_1175
*1164 FILLER_11_1177
*1165 FILLER_11_1189
*1166 FILLER_11_1201
*1167 FILLER_11_1213
*1168 FILLER_11_1225
*1169 FILLER_11_1231
*1170 FILLER_11_1233
*1171 FILLER_11_1245
*1172 FILLER_11_125
*1173 FILLER_11_1257
*1174 FILLER_11_1265
*1175 FILLER_11_1268
*1176 FILLER_11_1273
*1177 FILLER_11_137
*1178 FILLER_11_149
*1179 FILLER_11_161
*1180 FILLER_11_167
*1181 FILLER_11_169
*1182 FILLER_11_18
*1183 FILLER_11_181
*1184 FILLER_11_193
*1185 FILLER_11_205
*1186 FILLER_11_217
*1187 FILLER_11_223
*1188 FILLER_11_225
*1189 FILLER_11_237
*1190 FILLER_11_249
*1191 FILLER_11_261
*1192 FILLER_11_273
*1193 FILLER_11_279
*1194 FILLER_11_281
*1195 FILLER_11_293
*1196 FILLER_11_30
*1197 FILLER_11_305
*1198 FILLER_11_318
*1199 FILLER_11_330
*1200 FILLER_11_337
*1201 FILLER_11_349
*1202 FILLER_11_361
*1203 FILLER_11_373
*1204 FILLER_11_385
*1205 FILLER_11_391
*1206 FILLER_11_393
*1207 FILLER_11_405
*1208 FILLER_11_417
*1209 FILLER_11_42
*1210 FILLER_11_429
*1211 FILLER_11_441
*1212 FILLER_11_447
*1213 FILLER_11_449
*1214 FILLER_11_461
*1215 FILLER_11_473
*1216 FILLER_11_485
*1217 FILLER_11_497
*1218 FILLER_11_503
*1219 FILLER_11_505
*1220 FILLER_11_517
*1221 FILLER_11_529
*1222 FILLER_11_54
*1223 FILLER_11_541
*1224 FILLER_11_553
*1225 FILLER_11_559
*1226 FILLER_11_561
*1227 FILLER_11_57
*1228 FILLER_11_573
*1229 FILLER_11_585
*1230 FILLER_11_597
*1231 FILLER_11_6
*1232 FILLER_11_609
*1233 FILLER_11_615
*1234 FILLER_11_617
*1235 FILLER_11_629
*1236 FILLER_11_641
*1237 FILLER_11_653
*1238 FILLER_11_665
*1239 FILLER_11_671
*1240 FILLER_11_673
*1241 FILLER_11_685
*1242 FILLER_11_69
*1243 FILLER_11_697
*1244 FILLER_11_709
*1245 FILLER_11_721
*1246 FILLER_11_727
*1247 FILLER_11_729
*1248 FILLER_11_741
*1249 FILLER_11_753
*1250 FILLER_11_765
*1251 FILLER_11_777
*1252 FILLER_11_783
*1253 FILLER_11_785
*1254 FILLER_11_797
*1255 FILLER_11_809
*1256 FILLER_11_81
*1257 FILLER_11_821
*1258 FILLER_11_833
*1259 FILLER_11_839
*1260 FILLER_11_841
*1261 FILLER_11_853
*1262 FILLER_11_865
*1263 FILLER_11_877
*1264 FILLER_11_889
*1265 FILLER_11_895
*1266 FILLER_11_897
*1267 FILLER_11_909
*1268 FILLER_11_921
*1269 FILLER_11_93
*1270 FILLER_11_933
*1271 FILLER_11_945
*1272 FILLER_11_951
*1273 FILLER_11_953
*1274 FILLER_11_965
*1275 FILLER_11_977
*1276 FILLER_11_989
*1277 FILLER_12_1005
*1278 FILLER_12_1017
*1279 FILLER_12_1029
*1280 FILLER_12_1035
*1281 FILLER_12_1037
*1282 FILLER_12_1049
*1283 FILLER_12_1061
*1284 FILLER_12_1073
*1285 FILLER_12_1085
*1286 FILLER_12_109
*1287 FILLER_12_1091
*1288 FILLER_12_1093
*1289 FILLER_12_1105
*1290 FILLER_12_1117
*1291 FILLER_12_1129
*1292 FILLER_12_1141
*1293 FILLER_12_1147
*1294 FILLER_12_1149
*1295 FILLER_12_1161
*1296 FILLER_12_1173
*1297 FILLER_12_1185
*1298 FILLER_12_1197
*1299 FILLER_12_1203
*1300 FILLER_12_1205
*1301 FILLER_12_121
*1302 FILLER_12_1217
*1303 FILLER_12_1229
*1304 FILLER_12_1241
*1305 FILLER_12_1253
*1306 FILLER_12_1259
*1307 FILLER_12_1261
*1308 FILLER_12_1273
*1309 FILLER_12_133
*1310 FILLER_12_139
*1311 FILLER_12_141
*1312 FILLER_12_15
*1313 FILLER_12_153
*1314 FILLER_12_165
*1315 FILLER_12_177
*1316 FILLER_12_189
*1317 FILLER_12_195
*1318 FILLER_12_197
*1319 FILLER_12_209
*1320 FILLER_12_221
*1321 FILLER_12_233
*1322 FILLER_12_245
*1323 FILLER_12_251
*1324 FILLER_12_253
*1325 FILLER_12_265
*1326 FILLER_12_27
*1327 FILLER_12_277
*1328 FILLER_12_289
*1329 FILLER_12_29
*1330 FILLER_12_3
*1331 FILLER_12_301
*1332 FILLER_12_307
*1333 FILLER_12_309
*1334 FILLER_12_321
*1335 FILLER_12_333
*1336 FILLER_12_345
*1337 FILLER_12_357
*1338 FILLER_12_363
*1339 FILLER_12_365
*1340 FILLER_12_377
*1341 FILLER_12_389
*1342 FILLER_12_401
*1343 FILLER_12_41
*1344 FILLER_12_413
*1345 FILLER_12_419
*1346 FILLER_12_421
*1347 FILLER_12_433
*1348 FILLER_12_445
*1349 FILLER_12_457
*1350 FILLER_12_469
*1351 FILLER_12_475
*1352 FILLER_12_477
*1353 FILLER_12_489
*1354 FILLER_12_501
*1355 FILLER_12_513
*1356 FILLER_12_525
*1357 FILLER_12_53
*1358 FILLER_12_531
*1359 FILLER_12_533
*1360 FILLER_12_545
*1361 FILLER_12_557
*1362 FILLER_12_569
*1363 FILLER_12_581
*1364 FILLER_12_587
*1365 FILLER_12_589
*1366 FILLER_12_601
*1367 FILLER_12_613
*1368 FILLER_12_625
*1369 FILLER_12_637
*1370 FILLER_12_643
*1371 FILLER_12_645
*1372 FILLER_12_65
*1373 FILLER_12_657
*1374 FILLER_12_669
*1375 FILLER_12_681
*1376 FILLER_12_693
*1377 FILLER_12_699
*1378 FILLER_12_701
*1379 FILLER_12_713
*1380 FILLER_12_725
*1381 FILLER_12_737
*1382 FILLER_12_749
*1383 FILLER_12_755
*1384 FILLER_12_757
*1385 FILLER_12_769
*1386 FILLER_12_77
*1387 FILLER_12_781
*1388 FILLER_12_793
*1389 FILLER_12_805
*1390 FILLER_12_811
*1391 FILLER_12_813
*1392 FILLER_12_825
*1393 FILLER_12_83
*1394 FILLER_12_837
*1395 FILLER_12_849
*1396 FILLER_12_85
*1397 FILLER_12_861
*1398 FILLER_12_867
*1399 FILLER_12_869
*1400 FILLER_12_881
*1401 FILLER_12_893
*1402 FILLER_12_905
*1403 FILLER_12_917
*1404 FILLER_12_923
*1405 FILLER_12_925
*1406 FILLER_12_937
*1407 FILLER_12_949
*1408 FILLER_12_961
*1409 FILLER_12_97
*1410 FILLER_12_973
*1411 FILLER_12_979
*1412 FILLER_12_981
*1413 FILLER_12_993
*1414 FILLER_13_1001
*1415 FILLER_13_1007
*1416 FILLER_13_1009
*1417 FILLER_13_1021
*1418 FILLER_13_1033
*1419 FILLER_13_1045
*1420 FILLER_13_105
*1421 FILLER_13_1057
*1422 FILLER_13_1063
*1423 FILLER_13_1065
*1424 FILLER_13_1077
*1425 FILLER_13_1089
*1426 FILLER_13_1101
*1427 FILLER_13_111
*1428 FILLER_13_1113
*1429 FILLER_13_1119
*1430 FILLER_13_1121
*1431 FILLER_13_113
*1432 FILLER_13_1133
*1433 FILLER_13_1145
*1434 FILLER_13_1157
*1435 FILLER_13_1169
*1436 FILLER_13_1175
*1437 FILLER_13_1177
*1438 FILLER_13_1189
*1439 FILLER_13_1201
*1440 FILLER_13_1213
*1441 FILLER_13_1225
*1442 FILLER_13_1231
*1443 FILLER_13_1236
*1444 FILLER_13_1248
*1445 FILLER_13_125
*1446 FILLER_13_1260
*1447 FILLER_13_1272
*1448 FILLER_13_1276
*1449 FILLER_13_137
*1450 FILLER_13_149
*1451 FILLER_13_15
*1452 FILLER_13_161
*1453 FILLER_13_167
*1454 FILLER_13_169
*1455 FILLER_13_181
*1456 FILLER_13_193
*1457 FILLER_13_205
*1458 FILLER_13_217
*1459 FILLER_13_223
*1460 FILLER_13_225
*1461 FILLER_13_237
*1462 FILLER_13_249
*1463 FILLER_13_261
*1464 FILLER_13_27
*1465 FILLER_13_273
*1466 FILLER_13_279
*1467 FILLER_13_281
*1468 FILLER_13_293
*1469 FILLER_13_3
*1470 FILLER_13_305
*1471 FILLER_13_317
*1472 FILLER_13_329
*1473 FILLER_13_335
*1474 FILLER_13_337
*1475 FILLER_13_349
*1476 FILLER_13_361
*1477 FILLER_13_373
*1478 FILLER_13_385
*1479 FILLER_13_39
*1480 FILLER_13_391
*1481 FILLER_13_393
*1482 FILLER_13_405
*1483 FILLER_13_417
*1484 FILLER_13_429
*1485 FILLER_13_441
*1486 FILLER_13_447
*1487 FILLER_13_449
*1488 FILLER_13_461
*1489 FILLER_13_473
*1490 FILLER_13_485
*1491 FILLER_13_497
*1492 FILLER_13_503
*1493 FILLER_13_505
*1494 FILLER_13_51
*1495 FILLER_13_517
*1496 FILLER_13_529
*1497 FILLER_13_541
*1498 FILLER_13_55
*1499 FILLER_13_553
*1500 FILLER_13_559
*1501 FILLER_13_561
*1502 FILLER_13_57
*1503 FILLER_13_573
*1504 FILLER_13_585
*1505 FILLER_13_597
*1506 FILLER_13_609
*1507 FILLER_13_615
*1508 FILLER_13_617
*1509 FILLER_13_629
*1510 FILLER_13_641
*1511 FILLER_13_653
*1512 FILLER_13_665
*1513 FILLER_13_671
*1514 FILLER_13_673
*1515 FILLER_13_685
*1516 FILLER_13_69
*1517 FILLER_13_697
*1518 FILLER_13_709
*1519 FILLER_13_721
*1520 FILLER_13_727
*1521 FILLER_13_729
*1522 FILLER_13_741
*1523 FILLER_13_753
*1524 FILLER_13_765
*1525 FILLER_13_777
*1526 FILLER_13_783
*1527 FILLER_13_785
*1528 FILLER_13_797
*1529 FILLER_13_809
*1530 FILLER_13_81
*1531 FILLER_13_821
*1532 FILLER_13_833
*1533 FILLER_13_839
*1534 FILLER_13_841
*1535 FILLER_13_853
*1536 FILLER_13_865
*1537 FILLER_13_877
*1538 FILLER_13_889
*1539 FILLER_13_895
*1540 FILLER_13_897
*1541 FILLER_13_909
*1542 FILLER_13_921
*1543 FILLER_13_93
*1544 FILLER_13_933
*1545 FILLER_13_945
*1546 FILLER_13_951
*1547 FILLER_13_953
*1548 FILLER_13_965
*1549 FILLER_13_977
*1550 FILLER_13_989
*1551 FILLER_14_1005
*1552 FILLER_14_1017
*1553 FILLER_14_1029
*1554 FILLER_14_1035
*1555 FILLER_14_1037
*1556 FILLER_14_1049
*1557 FILLER_14_1061
*1558 FILLER_14_1073
*1559 FILLER_14_1085
*1560 FILLER_14_109
*1561 FILLER_14_1091
*1562 FILLER_14_1093
*1563 FILLER_14_11
*1564 FILLER_14_1105
*1565 FILLER_14_1117
*1566 FILLER_14_1129
*1567 FILLER_14_1141
*1568 FILLER_14_1147
*1569 FILLER_14_1149
*1570 FILLER_14_1161
*1571 FILLER_14_1173
*1572 FILLER_14_1185
*1573 FILLER_14_1197
*1574 FILLER_14_1203
*1575 FILLER_14_1205
*1576 FILLER_14_121
*1577 FILLER_14_1217
*1578 FILLER_14_1221
*1579 FILLER_14_1226
*1580 FILLER_14_1238
*1581 FILLER_14_1250
*1582 FILLER_14_1258
*1583 FILLER_14_1261
*1584 FILLER_14_1269
*1585 FILLER_14_1273
*1586 FILLER_14_133
*1587 FILLER_14_139
*1588 FILLER_14_141
*1589 FILLER_14_153
*1590 FILLER_14_165
*1591 FILLER_14_177
*1592 FILLER_14_18
*1593 FILLER_14_189
*1594 FILLER_14_195
*1595 FILLER_14_197
*1596 FILLER_14_209
*1597 FILLER_14_221
*1598 FILLER_14_233
*1599 FILLER_14_245
*1600 FILLER_14_251
*1601 FILLER_14_253
*1602 FILLER_14_26
*1603 FILLER_14_265
*1604 FILLER_14_277
*1605 FILLER_14_289
*1606 FILLER_14_29