*SPEF "ieee 1481-1999"
*DESIGN "l1icache_32"
*DATE "11:11:11 Fri 11 11, 1111"
*VENDOR "OpenRCX"
*PROGRAM "Parallel Extraction"
*VERSION "1.0"
*DESIGN_FLOW "NAME_SCOPE LOCAL" "PIN_CAP NONE"
*DIVIDER /
*DELIMITER :
*BUS_DELIMITER []
*T_UNIT 1 NS
*C_UNIT 1 PF
*R_UNIT 1 OHM
*L_UNIT 1 HENRY

*NAME_MAP
*1 clk
*2 data_chip_en
*3 data_in[0]
*4 data_in[10]
*5 data_in[11]
*6 data_in[12]
*7 data_in[13]
*8 data_in[14]
*9 data_in[15]
*10 data_in[16]
*11 data_in[17]
*12 data_in[18]
*13 data_in[19]
*14 data_in[1]
*15 data_in[20]
*16 data_in[21]
*17 data_in[22]
*18 data_in[23]
*19 data_in[24]
*20 data_in[25]
*21 data_in[26]
*22 data_in[27]
*23 data_in[28]
*24 data_in[29]
*25 data_in[2]
*26 data_in[30]
*27 data_in[31]
*28 data_in[3]
*29 data_in[4]
*30 data_in[5]
*31 data_in[6]
*32 data_in[7]
*33 data_in[8]
*34 data_in[9]
*35 data_index[0]
*36 data_index[1]
*37 data_index[2]
*38 data_index[3]
*39 data_index[4]
*40 data_index[5]
*41 data_index[6]
*42 data_index[7]
*43 data_out[0]
*44 data_out[10]
*45 data_out[11]
*46 data_out[12]
*47 data_out[13]
*48 data_out[14]
*49 data_out[15]
*50 data_out[16]
*51 data_out[17]
*52 data_out[18]
*53 data_out[19]
*54 data_out[1]
*55 data_out[20]
*56 data_out[21]
*57 data_out[22]
*58 data_out[23]
*59 data_out[24]
*60 data_out[25]
*61 data_out[26]
*62 data_out[27]
*63 data_out[28]
*64 data_out[29]
*65 data_out[2]
*66 data_out[30]
*67 data_out[31]
*68 data_out[3]
*69 data_out[4]
*70 data_out[5]
*71 data_out[6]
*72 data_out[7]
*73 data_out[8]
*74 data_out[9]
*75 data_write_en
*76 ld_data_o[0]
*77 ld_data_o[10]
*78 ld_data_o[11]
*79 ld_data_o[12]
*80 ld_data_o[13]
*81 ld_data_o[14]
*82 ld_data_o[15]
*83 ld_data_o[16]
*84 ld_data_o[17]
*85 ld_data_o[18]
*86 ld_data_o[19]
*87 ld_data_o[1]
*88 ld_data_o[20]
*89 ld_data_o[21]
*90 ld_data_o[22]
*91 ld_data_o[23]
*92 ld_data_o[24]
*93 ld_data_o[25]
*94 ld_data_o[26]
*95 ld_data_o[27]
*96 ld_data_o[28]
*97 ld_data_o[29]
*98 ld_data_o[2]
*99 ld_data_o[30]
*100 ld_data_o[31]
*101 ld_data_o[3]
*102 ld_data_o[4]
*103 ld_data_o[5]
*104 ld_data_o[6]
*105 ld_data_o[7]
*106 ld_data_o[8]
*107 ld_data_o[9]
*108 req_addr_i[0]
*109 req_addr_i[10]
*110 req_addr_i[11]
*111 req_addr_i[12]
*112 req_addr_i[13]
*113 req_addr_i[14]
*114 req_addr_i[15]
*115 req_addr_i[16]
*116 req_addr_i[17]
*117 req_addr_i[18]
*118 req_addr_i[19]
*119 req_addr_i[1]
*120 req_addr_i[20]
*121 req_addr_i[21]
*122 req_addr_i[22]
*123 req_addr_i[23]
*124 req_addr_i[24]
*125 req_addr_i[25]
*126 req_addr_i[26]
*127 req_addr_i[27]
*128 req_addr_i[28]
*129 req_addr_i[29]
*130 req_addr_i[2]
*131 req_addr_i[30]
*132 req_addr_i[31]
*133 req_addr_i[3]
*134 req_addr_i[4]
*135 req_addr_i[5]
*136 req_addr_i[6]
*137 req_addr_i[7]
*138 req_addr_i[8]
*139 req_addr_i[9]
*140 req_ready_o
*141 req_valid_i
*142 resp_addr_o[0]
*143 resp_addr_o[10]
*144 resp_addr_o[11]
*145 resp_addr_o[12]
*146 resp_addr_o[13]
*147 resp_addr_o[14]
*148 resp_addr_o[15]
*149 resp_addr_o[16]
*150 resp_addr_o[17]
*151 resp_addr_o[18]
*152 resp_addr_o[19]
*153 resp_addr_o[1]
*154 resp_addr_o[20]
*155 resp_addr_o[21]
*156 resp_addr_o[22]
*157 resp_addr_o[23]
*158 resp_addr_o[24]
*159 resp_addr_o[25]
*160 resp_addr_o[26]
*161 resp_addr_o[27]
*162 resp_addr_o[28]
*163 resp_addr_o[29]
*164 resp_addr_o[2]
*165 resp_addr_o[30]
*166 resp_addr_o[31]
*167 resp_addr_o[3]
*168 resp_addr_o[4]
*169 resp_addr_o[5]
*170 resp_addr_o[6]
*171 resp_addr_o[7]
*172 resp_addr_o[8]
*173 resp_addr_o[9]
*174 resp_ready_i
*175 resp_valid_o
*176 rstn
*177 tag_chip_en
*178 tag_data_in[0]
*179 tag_data_in[10]
*180 tag_data_in[11]
*181 tag_data_in[12]
*182 tag_data_in[13]
*183 tag_data_in[14]
*184 tag_data_in[15]
*185 tag_data_in[16]
*186 tag_data_in[17]
*187 tag_data_in[18]
*188 tag_data_in[19]
*189 tag_data_in[1]
*190 tag_data_in[20]
*191 tag_data_in[21]
*192 tag_data_in[22]
*193 tag_data_in[23]
*194 tag_data_in[24]
*195 tag_data_in[25]
*196 tag_data_in[26]
*197 tag_data_in[27]
*198 tag_data_in[28]
*199 tag_data_in[29]
*200 tag_data_in[2]
*201 tag_data_in[30]
*202 tag_data_in[31]
*203 tag_data_in[3]
*204 tag_data_in[4]
*205 tag_data_in[5]
*206 tag_data_in[6]
*207 tag_data_in[7]
*208 tag_data_in[8]
*209 tag_data_in[9]
*210 tag_index[0]
*211 tag_index[1]
*212 tag_index[2]
*213 tag_index[3]
*214 tag_index[4]
*215 tag_index[5]
*216 tag_index[6]
*217 tag_index[7]
*218 tag_out[0]
*219 tag_out[10]
*220 tag_out[11]
*221 tag_out[12]
*222 tag_out[13]
*223 tag_out[14]
*224 tag_out[15]
*225 tag_out[16]
*226 tag_out[17]
*227 tag_out[18]
*228 tag_out[19]
*229 tag_out[1]
*230 tag_out[20]
*231 tag_out[21]
*232 tag_out[22]
*233 tag_out[23]
*234 tag_out[24]
*235 tag_out[25]
*236 tag_out[26]
*237 tag_out[27]
*238 tag_out[28]
*239 tag_out[29]
*240 tag_out[2]
*241 tag_out[30]
*242 tag_out[31]
*243 tag_out[3]
*244 tag_out[4]
*245 tag_out[5]
*246 tag_out[6]
*247 tag_out[7]
*248 tag_out[8]
*249 tag_out[9]
*250 tag_write_en
*253 wb_ack_i
*254 wb_adr_o[0]
*255 wb_adr_o[10]
*256 wb_adr_o[11]
*257 wb_adr_o[12]
*258 wb_adr_o[13]
*259 wb_adr_o[14]
*260 wb_adr_o[15]
*261 wb_adr_o[16]
*262 wb_adr_o[17]
*263 wb_adr_o[18]
*264 wb_adr_o[19]
*265 wb_adr_o[1]
*266 wb_adr_o[20]
*267 wb_adr_o[21]
*268 wb_adr_o[22]
*269 wb_adr_o[23]
*270 wb_adr_o[24]
*271 wb_adr_o[25]
*272 wb_adr_o[26]
*273 wb_adr_o[27]
*274 wb_adr_o[28]
*275 wb_adr_o[29]
*276 wb_adr_o[2]
*277 wb_adr_o[30]
*278 wb_adr_o[31]
*279 wb_adr_o[3]
*280 wb_adr_o[4]
*281 wb_adr_o[5]
*282 wb_adr_o[6]
*283 wb_adr_o[7]
*284 wb_adr_o[8]
*285 wb_adr_o[9]
*286 wb_bl_o[0]
*287 net318
*288 net319
*289 net320
*290 net321
*291 net322
*292 net323
*293 net324
*294 net325
*295 net326
*296 wb_bry_o
*297 wb_cyc_o
*298 wb_dat_i[0]
*299 wb_dat_i[10]
*300 wb_dat_i[11]
*301 wb_dat_i[12]
*302 wb_dat_i[13]
*303 wb_dat_i[14]
*304 wb_dat_i[15]
*305 wb_dat_i[16]
*306 wb_dat_i[17]
*307 wb_dat_i[18]
*308 wb_dat_i[19]
*309 wb_dat_i[1]
*310 wb_dat_i[20]
*311 wb_dat_i[21]
*312 wb_dat_i[22]
*313 wb_dat_i[23]
*314 wb_dat_i[24]
*315 wb_dat_i[25]
*316 wb_dat_i[26]
*317 wb_dat_i[27]
*318 wb_dat_i[28]
*319 wb_dat_i[29]
*320 wb_dat_i[2]
*321 wb_dat_i[30]
*322 wb_dat_i[31]
*323 wb_dat_i[3]
*324 wb_dat_i[4]
*325 wb_dat_i[5]
*326 wb_dat_i[6]
*327 wb_dat_i[7]
*328 wb_dat_i[8]
*329 wb_dat_i[9]
*330 wb_stb_o
*331 net327
*332 write_data_mask[0]
*333 write_data_mask[1]
*334 write_data_mask[2]
*335 write_data_mask[3]
*336 write_tag_mask[0]
*337 write_tag_mask[1]
*338 write_tag_mask[2]
*339 write_tag_mask[3]
*340 LD_DATA\.dff_q\[0\]
*341 LD_DATA\.dff_q\[10\]
*342 LD_DATA\.dff_q\[11\]
*343 LD_DATA\.dff_q\[12\]
*344 LD_DATA\.dff_q\[13\]
*345 LD_DATA\.dff_q\[14\]
*346 LD_DATA\.dff_q\[15\]
*347 LD_DATA\.dff_q\[16\]
*348 LD_DATA\.dff_q\[17\]
*349 LD_DATA\.dff_q\[18\]
*350 LD_DATA\.dff_q\[19\]
*351 LD_DATA\.dff_q\[1\]
*352 LD_DATA\.dff_q\[20\]
*353 LD_DATA\.dff_q\[21\]
*354 LD_DATA\.dff_q\[22\]
*355 LD_DATA\.dff_q\[23\]
*356 LD_DATA\.dff_q\[24\]
*357 LD_DATA\.dff_q\[25\]
*358 LD_DATA\.dff_q\[26\]
*359 LD_DATA\.dff_q\[27\]
*360 LD_DATA\.dff_q\[28\]
*361 LD_DATA\.dff_q\[29\]
*362 LD_DATA\.dff_q\[2\]
*363 LD_DATA\.dff_q\[30\]
*364 LD_DATA\.dff_q\[31\]
*365 LD_DATA\.dff_q\[3\]
*366 LD_DATA\.dff_q\[4\]
*367 LD_DATA\.dff_q\[5\]
*368 LD_DATA\.dff_q\[6\]
*369 LD_DATA\.dff_q\[7\]
*370 LD_DATA\.dff_q\[8\]
*371 LD_DATA\.dff_q\[9\]
*372 REQ_HSK_1\.dff_q
*373 RESP_HSK\.dff_q
*374 RESP_VALID\.dff_q
*375 S1_LD_TAG_IS_HIT\.dff_q
*376 _0000_
*377 _0001_
*378 _0002_
*379 _0003_
*380 _0004_
*381 _0005_
*382 _0006_
*383 _0007_
*384 _0008_
*385 _0009_
*386 _0010_
*387 _0011_
*388 _0012_
*389 _0013_
*390 _0014_
*391 _0015_
*392 _0016_
*393 _0017_
*394 _0018_
*395 _0019_
*396 _0020_
*397 _0021_
*398 _0022_
*399 _0023_
*400 _0024_
*401 _0025_
*402 _0026_
*403 _0027_
*404 _0028_
*405 _0029_
*406 _0030_
*407 _0031_
*408 _0032_
*409 _0033_
*410 _0034_
*411 _0035_
*412 _0036_
*413 _0037_
*414 _0038_
*415 _0039_
*416 _0040_
*417 _0041_
*418 _0042_
*419 _0043_
*420 _0044_
*421 _0045_
*422 _0046_
*423 _0047_
*424 _0048_
*425 _0049_
*426 _0050_
*427 _0051_
*428 _0052_
*429 _0053_
*430 _0054_
*431 _0055_
*432 _0056_
*433 _0057_
*434 _0058_
*435 _0059_
*436 _0060_
*437 _0061_
*438 _0062_
*439 _0063_
*440 _0064_
*441 _0065_
*442 _0066_
*443 _0067_
*444 _0068_
*445 _0069_
*446 _0070_
*447 _0071_
*448 _0072_
*449 _0073_
*450 _0074_
*451 _0075_
*452 _0076_
*453 _0077_
*454 _0078_
*455 _0079_
*456 _0080_
*457 _0081_
*458 _0082_
*459 _0083_
*460 _0084_
*461 _0085_
*462 _0086_
*463 _0087_
*464 _0088_
*465 _0089_
*466 _0090_
*467 _0091_
*468 _0092_
*469 _0093_
*470 _0094_
*471 _0095_
*472 _0096_
*473 _0097_
*474 _0098_
*475 _0099_
*476 _0100_
*477 _0101_
*478 _0102_
*479 _0103_
*480 _0104_
*481 _0105_
*482 _0106_
*483 _0107_
*484 _0108_
*485 _0109_
*486 _0110_
*487 _0111_
*488 _0112_
*489 _0113_
*490 _0114_
*491 _0115_
*492 _0116_
*493 _0117_
*494 _0118_
*495 _0119_
*496 _0120_
*497 _0121_
*498 _0122_
*499 _0123_
*500 _0124_
*501 _0125_
*502 _0126_
*503 _0127_
*504 _0128_
*505 _0129_
*506 _0130_
*507 _0131_
*508 _0132_
*509 _0133_
*510 _0134_
*511 _0135_
*512 _0136_
*513 _0137_
*514 _0138_
*515 _0139_
*516 _0140_
*517 _0141_
*518 _0142_
*519 _0143_
*520 _0144_
*521 _0145_
*522 _0146_
*523 _0147_
*524 _0148_
*525 _0149_
*526 _0150_
*527 _0151_
*528 _0152_
*529 _0153_
*530 _0154_
*531 _0155_
*532 _0156_
*533 _0157_
*534 _0158_
*535 _0159_
*536 _0160_
*537 _0161_
*538 _0162_
*539 _0163_
*540 _0164_
*541 _0165_
*542 _0166_
*543 _0167_
*544 _0168_
*545 _0169_
*546 _0170_
*547 _0171_
*548 _0172_
*549 _0173_
*550 _0174_
*551 _0175_
*552 _0176_
*553 _0177_
*554 _0178_
*555 _0179_
*556 _0180_
*557 _0181_
*558 _0182_
*559 _0183_
*560 _0184_
*561 _0185_
*562 _0186_
*563 _0187_
*564 _0188_
*565 _0189_
*566 _0190_
*567 _0191_
*568 _0192_
*569 _0193_
*570 _0194_
*571 _0195_
*572 _0196_
*573 _0197_
*574 _0198_
*575 _0199_
*576 _0200_
*577 _0201_
*578 _0202_
*579 _0203_
*580 _0204_
*581 _0205_
*582 _0206_
*583 _0207_
*584 _0208_
*585 _0209_
*586 _0210_
*587 _0211_
*588 _0212_
*589 _0213_
*590 _0214_
*591 _0215_
*592 _0216_
*593 _0217_
*594 _0218_
*595 _0219_
*596 _0220_
*597 _0221_
*598 _0222_
*599 _0223_
*600 _0224_
*601 _0225_
*602 _0226_
*603 _0227_
*604 _0228_
*605 _0229_
*606 _0230_
*607 _0231_
*608 _0232_
*609 _0233_
*610 _0234_
*611 _0235_
*612 _0236_
*613 _0237_
*614 _0238_
*615 _0239_
*616 _0240_
*617 _0241_
*618 _0242_
*619 _0243_
*620 _0244_
*621 _0245_
*622 _0246_
*623 _0247_
*624 _0248_
*625 _0249_
*626 _0250_
*627 _0251_
*628 _0252_
*629 _0253_
*630 _0254_
*631 _0255_
*632 _0256_
*633 _0257_
*634 _0258_
*635 _0259_
*636 _0260_
*637 _0261_
*638 _0262_
*639 _0263_
*640 _0264_
*641 _0265_
*642 _0266_
*643 _0267_
*644 _0268_
*645 _0269_
*646 _0270_
*647 _0271_
*648 _0272_
*649 _0273_
*650 _0274_
*651 _0275_
*652 _0276_
*653 _0277_
*654 _0278_
*655 _0279_
*656 _0280_
*657 _0281_
*658 _0282_
*659 _0283_
*660 _0284_
*661 _0285_
*662 _0286_
*663 _0287_
*664 _0288_
*665 _0289_
*666 _0290_
*667 _0291_
*668 _0292_
*669 _0293_
*670 _0294_
*671 _0295_
*672 _0296_
*673 _0297_
*674 _0298_
*675 _0299_
*676 _0300_
*677 _0301_
*678 _0302_
*679 _0303_
*680 _0304_
*681 _0305_
*682 _0306_
*683 _0307_
*684 _0308_
*685 _0309_
*686 _0310_
*687 _0311_
*688 _0312_
*689 _0313_
*690 _0314_
*691 _0315_
*692 _0316_
*693 _0317_
*694 _0318_
*695 _0319_
*696 _0320_
*697 _0321_
*698 _0322_
*699 _0323_
*700 _0324_
*701 _0325_
*702 _0326_
*703 _0327_
*704 _0328_
*705 _0329_
*706 _0330_
*707 _0331_
*708 _0332_
*709 _0333_
*710 _0334_
*711 _0335_
*712 _0336_
*713 _0337_
*714 _0338_
*715 _0339_
*716 _0340_
*717 _0341_
*718 _0342_
*719 _0343_
*720 _0344_
*721 _0345_
*722 _0346_
*723 _0347_
*724 _0348_
*725 _0349_
*726 _0350_
*727 _0351_
*728 _0352_
*729 _0353_
*730 _0354_
*731 _0355_
*732 _0356_
*733 _0357_
*734 _0358_
*735 _0359_
*736 _0360_
*737 _0361_
*738 _0362_
*739 _0363_
*740 _0364_
*741 _0365_
*742 _0366_
*743 _0367_
*744 _0368_
*745 _0369_
*746 _0370_
*747 _0371_
*748 _0372_
*749 _0373_
*750 _0374_
*751 _0375_
*752 _0376_
*753 _0377_
*754 _0378_
*755 _0379_
*756 _0380_
*757 _0381_
*758 _0382_
*759 _0383_
*760 _0384_
*761 _0385_
*762 _0386_
*763 _0387_
*764 _0388_
*765 _0389_
*766 _0390_
*767 _0391_
*768 _0392_
*769 _0393_
*770 _0394_
*771 _0395_
*772 _0396_
*773 _0397_
*774 _0398_
*775 _0399_
*776 _0400_
*777 _0401_
*778 _0402_
*779 _0403_
*780 _0404_
*781 _0405_
*782 _0406_
*783 _0407_
*784 _0408_
*785 _0409_
*786 _0410_
*787 _0411_
*788 _0412_
*789 _0413_
*790 _0414_
*791 _0415_
*792 _0416_
*793 _0417_
*794 _0418_
*795 _0419_
*796 _0420_
*797 _0421_
*798 _0422_
*799 _0423_
*800 _0424_
*801 _0425_
*802 _0426_
*803 _0427_
*804 _0428_
*805 _0429_
*806 _0430_
*807 _0431_
*808 _0432_
*809 _0433_
*810 _0434_
*811 _0435_
*812 _0436_
*813 _0437_
*814 _0438_
*815 _0439_
*816 _0440_
*817 _0441_
*818 _0442_
*819 _0443_
*820 _0444_
*821 _0445_
*822 _0446_
*823 _0447_
*824 _0448_
*825 _0449_
*826 _0450_
*827 _0451_
*828 _0452_
*829 _0453_
*830 _0454_
*831 _0455_
*832 _0456_
*833 _0457_
*834 _0458_
*835 _0459_
*836 _0460_
*837 _0461_
*838 _0462_
*839 _0463_
*840 _0464_
*841 _0465_
*842 _0466_
*843 _0467_
*844 _0468_
*845 _0469_
*846 _0470_
*847 _0471_
*848 _0472_
*849 _0473_
*850 _0474_
*851 _0475_
*852 _0476_
*853 _0477_
*854 _0478_
*855 _0479_
*856 _0480_
*857 _0481_
*858 _0482_
*859 _0483_
*860 _0484_
*861 _0485_
*862 _0486_
*863 _0487_
*864 _0488_
*865 _0489_
*866 _0490_
*867 _0491_
*868 _0492_
*869 _0493_
*870 _0494_
*871 _0495_
*872 _0496_
*873 _0497_
*874 _0498_
*875 _0499_
*876 _0500_
*877 _0501_
*878 _0502_
*879 _0503_
*880 _0504_
*881 _0505_
*882 _0506_
*883 _0507_
*884 _0508_
*885 _0509_
*886 _0510_
*887 _0511_
*888 _0512_
*889 _0513_
*890 _0514_
*891 _0515_
*892 _0516_
*893 _0517_
*894 _0518_
*895 _0519_
*896 _0520_
*897 _0521_
*898 _0522_
*899 _0523_
*900 _0524_
*901 _0525_
*902 _0526_
*903 _0527_
*904 _0528_
*905 _0529_
*906 _0530_
*907 _0531_
*908 _0532_
*909 _0533_
*910 clknet_0_clk
*911 clknet_3_0__leaf_clk
*912 clknet_3_1__leaf_clk
*913 clknet_3_2__leaf_clk
*914 clknet_3_3__leaf_clk
*915 clknet_3_4__leaf_clk
*916 clknet_3_5__leaf_clk
*917 clknet_3_6__leaf_clk
*918 clknet_3_7__leaf_clk
*919 counter\[0\]
*920 counter\[1\]
*921 counter\[2\]
*922 counter\[3\]
*923 counter\[4\]
*924 counter\[5\]
*925 counter\[6\]
*926 counter\[7\]
*927 data_out_save\[0\]
*928 data_out_save\[10\]
*929 data_out_save\[11\]
*930 data_out_save\[12\]
*931 data_out_save\[13\]
*932 data_out_save\[14\]
*933 data_out_save\[15\]
*934 data_out_save\[16\]
*935 data_out_save\[17\]
*936 data_out_save\[18\]
*937 data_out_save\[19\]
*938 data_out_save\[1\]
*939 data_out_save\[20\]
*940 data_out_save\[21\]
*941 data_out_save\[22\]
*942 data_out_save\[23\]
*943 data_out_save\[24\]
*944 data_out_save\[25\]
*945 data_out_save\[26\]
*946 data_out_save\[27\]
*947 data_out_save\[28\]
*948 data_out_save\[29\]
*949 data_out_save\[2\]
*950 data_out_save\[30\]
*951 data_out_save\[31\]
*952 data_out_save\[3\]
*953 data_out_save\[4\]
*954 data_out_save\[5\]
*955 data_out_save\[6\]
*956 data_out_save\[7\]
*957 data_out_save\[8\]
*958 data_out_save\[9\]
*959 mshr_is_full
*960 net1
*961 net10
*962 net100
*963 net101
*964 net102
*965 net103
*966 net104
*967 net105
*968 net106
*969 net107
*970 net108
*971 net109
*972 net11
*973 net110
*974 net111
*975 net112
*976 net113
*977 net114
*978 net115
*979 net116
*980 net117
*981 net118
*982 net119
*983 net12
*984 net120
*985 net121
*986 net122
*987 net123
*988 net124
*989 net125
*990 net126
*991 net127
*992 net128
*993 net129
*994 net13
*995 net130
*996 net131
*997 net132
*998 net133
*999 net134
*1000 net135
*1001 net136
*1002 net137
*1003 net138
*1004 net139
*1005 net14
*1006 net140
*1007 net141
*1008 net142
*1009 net143
*1010 net144
*1011 net145
*1012 net146
*1013 net147
*1014 net148
*1015 net149
*1016 net15
*1017 net150
*1018 net151
*1019 net152
*1020 net153
*1021 net154
*1022 net155
*1023 net156
*1024 net157
*1025 net158
*1026 net159
*1027 net16
*1028 net160
*1029 net161
*1030 net162
*1031 net163
*1032 net164
*1033 net165
*1034 net166
*1035 net167
*1036 net168
*1037 net169
*1038 net17
*1039 net170
*1040 net171
*1041 net172
*1042 net173
*1043 net174
*1044 net175
*1045 net176
*1046 net177
*1047 net178
*1048 net179
*1049 net18
*1050 net180
*1051 net181
*1052 net182
*1053 net183
*1054 net184
*1055 net185
*1056 net186
*1057 net187
*1058 net188
*1059 net189
*1060 net19
*1061 net190
*1062 net191
*1063 net192
*1064 net193
*1065 net194
*1066 net195
*1067 net196
*1068 net197
*1069 net198
*1070 net199
*1071 net2
*1072 net20
*1073 net200
*1074 net201
*1075 net202
*1076 net203
*1077 net204
*1078 net205
*1079 net206
*1080 net207
*1081 net208
*1082 net209
*1083 net21
*1084 net210
*1085 net211
*1086 net212
*1087 net213
*1088 net214
*1089 net215
*1090 net216
*1091 net217
*1092 net218
*1093 net219
*1094 net22
*1095 net220
*1096 net221
*1097 net222
*1098 net223
*1099 net224
*1100 net225
*1101 net226
*1102 net227
*1103 net228
*1104 net229
*1105 net23
*1106 net230
*1107 net231
*1108 net232
*1109 net233
*1110 net234
*1111 net235
*1112 net236
*1113 net237
*1114 net238
*1115 net239
*1116 net24
*1117 net240
*1118 net241
*1119 net242
*1120 net243
*1121 net244
*1122 net245
*1123 net246
*1124 net247
*1125 net248
*1126 net249
*1127 net25
*1128 net250
*1129 net251
*1130 net252
*1131 net253
*1132 net254
*1133 net255
*1134 net256
*1135 net257
*1136 net258
*1137 net259
*1138 net26
*1139 net260
*1140 net261
*1141 net262
*1142 net263
*1143 net264
*1144 net265
*1145 net266
*1146 net267
*1147 net268
*1148 net269
*1149 net27
*1150 net270
*1151 net271
*1152 net272
*1153 net273
*1154 net274
*1155 net275
*1156 net276
*1157 net277
*1158 net278
*1159 net279
*1160 net28
*1161 net280
*1162 net281
*1163 net282
*1164 net283
*1165 net284
*1166 net285
*1167 net286
*1168 net287
*1169 net288
*1170 net289
*1171 net29
*1172 net290
*1173 net291
*1174 net292
*1175 net293
*1176 net294
*1177 net295
*1178 net296
*1179 net297
*1180 net298
*1181 net299
*1182 net3
*1183 net30
*1184 net300
*1185 net301
*1186 net302
*1187 net303
*1188 net304
*1189 net305
*1190 net306
*1191 net307
*1192 net308
*1193 net309
*1194 net31
*1195 net310
*1196 net311
*1197 net312
*1198 net313
*1199 net314
*1200 net315
*1201 net316
*1202 net317
*1203 net32
*1204 net33
*1205 net34
*1206 net35
*1207 net36
*1208 net37
*1209 net38
*1210 net39
*1211 net4
*1212 net40
*1213 net41
*1214 net42
*1215 net43
*1216 net44
*1217 net45
*1218 net46
*1219 net47
*1220 net48
*1221 net49
*1222 net5
*1223 net50
*1224 net51
*1225 net52
*1226 net53
*1227 net54
*1228 net55
*1229 net56
*1230 net57
*1231 net58
*1232 net59
*1233 net6
*1234 net60
*1235 net61
*1236 net62
*1237 net63
*1238 net64
*1239 net65
*1240 net66
*1241 net67
*1242 net68
*1243 net69
*1244 net7
*1245 net70
*1246 net71
*1247 net72
*1248 net73
*1249 net74
*1250 net75
*1251 net76
*1252 net77
*1253 net78
*1254 net79
*1255 net8
*1256 net80
*1257 net81
*1258 net82
*1259 net83
*1260 net84
*1261 net85
*1262 net86
*1263 net87
*1264 net88
*1265 net89
*1266 net9
*1267 net90
*1268 net91
*1269 net92
*1270 net93
*1271 net94
*1272 net95
*1273 net96
*1274 net97
*1275 net98
*1276 net99
*1277 start
*1278 ANTENNA_0
*1279 ANTENNA_1
*1280 ANTENNA_10
*1281 ANTENNA_11
*1282 ANTENNA_12
*1283 ANTENNA_13
*1284 ANTENNA_14
*1285 ANTENNA_15
*1286 ANTENNA_16
*1287 ANTENNA_17
*1288 ANTENNA_18
*1289 ANTENNA_19
*1290 ANTENNA_2
*1291 ANTENNA_20
*1292 ANTENNA_21
*1293 ANTENNA_22
*1294 ANTENNA_23
*1295 ANTENNA_24
*1296 ANTENNA_25
*1297 ANTENNA_26
*1298 ANTENNA_27
*1299 ANTENNA_28
*1300 ANTENNA_29
*1301 ANTENNA_3
*1302 ANTENNA_30
*1303 ANTENNA_31
*1304 ANTENNA_32
*1305 ANTENNA_33
*1306 ANTENNA_34
*1307 ANTENNA_35
*1308 ANTENNA_36
*1309 ANTENNA_37
*1310 ANTENNA_38
*1311 ANTENNA_39
*1312 ANTENNA_4
*1313 ANTENNA_40
*1314 ANTENNA_41
*1315 ANTENNA_42
*1316 ANTENNA_43
*1317 ANTENNA_44
*1318 ANTENNA_45
*1319 ANTENNA_46
*1320 ANTENNA_47
*1321 ANTENNA_48
*1322 ANTENNA_49
*1323 ANTENNA_5
*1324 ANTENNA_50
*1325 ANTENNA_51
*1326 ANTENNA_52
*1327 ANTENNA_53
*1328 ANTENNA_54
*1329 ANTENNA_55
*1330 ANTENNA_56
*1331 ANTENNA_57
*1332 ANTENNA_58
*1333 ANTENNA_59
*1334 ANTENNA_6
*1335 ANTENNA_60
*1336 ANTENNA_61
*1337 ANTENNA_62
*1338 ANTENNA_63
*1339 ANTENNA_64
*1340 ANTENNA_65
*1341 ANTENNA_66
*1342 ANTENNA_67
*1343 ANTENNA_68
*1344 ANTENNA_69
*1345 ANTENNA_7
*1346 ANTENNA_70
*1347 ANTENNA_71
*1348 ANTENNA_72
*1349 ANTENNA_73
*1350 ANTENNA_74
*1351 ANTENNA_8
*1352 ANTENNA_9
*1353 FILLER_0_10
*1354 FILLER_0_103
*1355 FILLER_0_109
*1356 FILLER_0_117
*1357 FILLER_0_124
*1358 FILLER_0_137
*1359 FILLER_0_14
*1360 FILLER_0_151
*1361 FILLER_0_155
*1362 FILLER_0_160
*1363 FILLER_0_179
*1364 FILLER_0_183
*1365 FILLER_0_187
*1366 FILLER_0_19
*1367 FILLER_0_193
*1368 FILLER_0_207
*1369 FILLER_0_211
*1370 FILLER_0_215
*1371 FILLER_0_221
*1372 FILLER_0_225
*1373 FILLER_0_231
*1374 FILLER_0_239
*1375 FILLER_0_244
*1376 FILLER_0_25
*1377 FILLER_0_253
*1378 FILLER_0_258
*1379 FILLER_0_265
*1380 FILLER_0_269
*1381 FILLER_0_272
*1382 FILLER_0_281
*1383 FILLER_0_288
*1384 FILLER_0_29
*1385 FILLER_0_3
*1386 FILLER_0_300
*1387 FILLER_0_309
*1388 FILLER_0_314
*1389 FILLER_0_320
*1390 FILLER_0_328
*1391 FILLER_0_333
*1392 FILLER_0_337
*1393 FILLER_0_343
*1394 FILLER_0_356
*1395 FILLER_0_36
*1396 FILLER_0_368
*1397 FILLER_0_377
*1398 FILLER_0_383
*1399 FILLER_0_389
*1400 FILLER_0_393
*1401 FILLER_0_398
*1402 FILLER_0_406
*1403 FILLER_0_412
*1404 FILLER_0_42
*1405 FILLER_0_431
*1406 FILLER_0_437
*1407 FILLER_0_441
*1408 FILLER_0_445
*1409 FILLER_0_449
*1410 FILLER_0_454
*1411 FILLER_0_461
*1412 FILLER_0_467
*1413 FILLER_0_473
*1414 FILLER_0_477
*1415 FILLER_0_48
*1416 FILLER_0_482
*1417 FILLER_0_490
*1418 FILLER_0_501
*1419 FILLER_0_508
*1420 FILLER_0_514
*1421 FILLER_0_520
*1422 FILLER_0_524
*1423 FILLER_0_529
*1424 FILLER_0_542
*1425 FILLER_0_549
*1426 FILLER_0_555
*1427 FILLER_0_559
*1428 FILLER_0_561
*1429 FILLER_0_568
*1430 FILLER_0_576
*1431 FILLER_0_580
*1432 FILLER_0_592
*1433 FILLER_0_598
*1434 FILLER_0_604
*1435 FILLER_0_610
*1436 FILLER_0_620
*1437 FILLER_0_626
*1438 FILLER_0_632
*1439 FILLER_0_638
*1440 FILLER_0_648
*1441 FILLER_0_657
*1442 FILLER_0_664
*1443 FILLER_0_67
*1444 FILLER_0_673
*1445 FILLER_0_685
*1446 FILLER_0_697
*1447 FILLER_0_704
*1448 FILLER_0_71
*1449 FILLER_0_710
*1450 FILLER_0_716
*1451 FILLER_0_722
*1452 FILLER_0_732
*1453 FILLER_0_741
*1454 FILLER_0_748
*1455 FILLER_0_75
*1456 FILLER_0_760
*1457 FILLER_0_766
*1458 FILLER_0_772
*1459 FILLER_0_777
*1460 FILLER_0_783
*1461 FILLER_0_788
*1462 FILLER_0_797
*1463 FILLER_0_805
*1464 FILLER_0_81
*1465 FILLER_0_811
*1466 FILLER_0_816
*1467 FILLER_0_823
*1468 FILLER_0_827
*1469 FILLER_0_832
*1470 FILLER_0_841
*1471 FILLER_0_845
*1472 FILLER_0_85
*1473 FILLER_0_853
*1474 FILLER_0_863
*1475 FILLER_0_869
*1476 FILLER_0_874
*1477 FILLER_0_879
*1478 FILLER_0_889
*1479 FILLER_0_895
*1480 FILLER_0_90
*1481 FILLER_0_900
*1482 FILLER_0_904
*1483 FILLER_0_909
*1484 FILLER_0_917
*1485 FILLER_0_923
*1486 FILLER_0_928
*1487 FILLER_0_935
*1488 FILLER_0_941
*1489 FILLER_0_948
*1490 FILLER_0_97
*1491 FILLER_10_109
*1492 FILLER_10_121
*1493 FILLER_10_133
*1494 FILLER_10_139
*1495 FILLER_10_141
*1496 FILLER_10_15
*1497 FILLER_10_153
*1498 FILLER_10_165
*1499 FILLER_10_177
*1500 FILLER_10_189
*1501 FILLER_10_195
*1502 FILLER_10_197
*1503 FILLER_10_209
*1504 FILLER_10_221
*1505 FILLER_10_233
*1506 FILLER_10_245
*1507 FILLER_10_251
*1508 FILLER_10_253
*1509 FILLER_10_265
*1510 FILLER_10_27
*1511 FILLER_10_277
*1512 FILLER_10_289
*1513 FILLER_10_29
*1514 FILLER_10_3
*1515 FILLER_10_301
*1516 FILLER_10_307
*1517 FILLER_10_309
*1518 FILLER_10_321
*1519 FILLER_10_333
*1520 FILLER_10_345
*1521 FILLER_10_357
*1522 FILLER_10_363
*1523 FILLER_10_365
*1524 FILLER_10_377
*1525 FILLER_10_389
*1526 FILLER_10_401
*1527 FILLER_10_41
*1528 FILLER_10_413
*1529 FILLER_10_419
*1530 FILLER_10_421
*1531 FILLER_10_433
*1532 FILLER_10_444
*1533 FILLER_10_456
*1534 FILLER_10_468
*1535 FILLER_10_477
*1536 FILLER_10_489
*1537 FILLER_10_496
*1538 FILLER_10_508
*1539 FILLER_10_520
*1540 FILLER_10_53
*1541 FILLER_10_533
*1542 FILLER_10_545
*1543 FILLER_10_557
*1544 FILLER_10_569
*1545 FILLER_10_581
*1546 FILLER_10_587
*1547 FILLER_10_589
*1548 FILLER_10_601
*1549 FILLER_10_613
*1550 FILLER_10_625
*1551 FILLER_10_637
*1552 FILLER_10_643
*1553 FILLER_10_645
*1554 FILLER_10_65
*1555 FILLER_10_657
*1556 FILLER_10_669
*1557 FILLER_10_681
*1558 FILLER_10_693
*1559 FILLER_10_699
*1560 FILLER_10_701
*1561 FILLER_10_713
*1562 FILLER_10_725
*1563 FILLER_10_737
*1564 FILLER_10_749
*1565 FILLER_10_755
*1566 FILLER_10_757
*1567 FILLER_10_769
*1568 FILLER_10_77
*1569 FILLER_10_781
*1570 FILLER_10_793
*1571 FILLER_10_805
*1572 FILLER_10_811
*1573 FILLER_10_813
*1574 FILLER_10_825
*1575 FILLER_10_83
*1576 FILLER_10_837
*1577 FILLER_10_849
*1578 FILLER_10_85
*1579 FILLER_10_861
*1580 FILLER_10_867
*1581 FILLER_10_869
*1582 FILLER_10_881
*1583 FILLER_10_893
*1584 FILLER_10_905
*1585 FILLER_10_917
*1586 FILLER_10_923
*1587 FILLER_10_925
*1588 FILLER_10_937
*1589 FILLER_10_943
*1590 FILLER_10_948
*1591 FILLER_10_97
*1592 FILLER_11_105
*1593 FILLER_11_111
*1594 FILLER_11_113
*1595 FILLER_11_125
*1596 FILLER_11_13
*1597 FILLER_11_137
*1598 FILLER_11_149
*1599 FILLER_11_161
*1600 FILLER_11_167
*1601 FILLER_11_169
*1602 FILLER_11_181
*1603 FILLER_11_193
*1604 FILLER_11_205
*1605 FILLER_11_217
*1606 FILLER_11_223
*1607 FILLER_11_225
*1608 FILLER_11_237
*1609 FILLER_11_249
*1610 FILLER_11_25
*1611 FILLER_11_261
*1612 FILLER_11_273
*1613 FILLER_11_279
*1614 FILLER_11_281
*1615 FILLER_11_293
*1616 FILLER_11_305
*1617 FILLER_11_317
*1618 FILLER_11_329
*1619 FILLER_11_335
*1620 FILLER_11_337
*1621 FILLER_11_349
*1622 FILLER_11_361
*1623 FILLER_11_37
*1624 FILLER_11_373
*1625 FILLER_11_385
*1626 FILLER_11_391
*1627 FILLER_11_393
*1628 FILLER_11_404
*1629 FILLER_11_416
*1630 FILLER_11_428
*1631 FILLER_11_436
*1632 FILLER_11_443
*1633 FILLER_11_447
*1634 FILLER_11_449
*1635 FILLER_11_462
*1636 FILLER_11_474
*1637 FILLER_11_486
*1638 FILLER_11_49
*1639 FILLER_11_498
*1640 FILLER_11_505
*1641 FILLER_11_517
*1642 FILLER_11_521
*1643 FILLER_11_531
*1644 FILLER_11_537
*1645 FILLER_11_549
*1646 FILLER_11_55
*1647 FILLER_11_557
*1648 FILLER_11_57
*1649 FILLER_11_570
*1650 FILLER_11_582
*1651 FILLER_11_594
*1652 FILLER_11_606
*1653 FILLER_11_614
*1654 FILLER_11_617
*1655 FILLER_11_629
*1656 FILLER_11_641
*1657 FILLER_11_653
*1658 FILLER_11_665
*1659 FILLER_11_671
*1660 FILLER_11_673
*1661 FILLER_11_685
*1662 FILLER_11_69
*1663 FILLER_11_697
*1664 FILLER_11_709
*1665 FILLER_11_721
*1666 FILLER_11_727
*1667 FILLER_11_729
*1668 FILLER_11_741
*1669 FILLER_11_753
*1670 FILLER_11_765
*1671 FILLER_11_777
*1672 FILLER_11_783
*1673 FILLER_11_785
*1674 FILLER_11_797
*1675 FILLER_11_809
*1676 FILLER_11_81
*1677 FILLER_11_821
*1678 FILLER_11_833
*1679 FILLER_11_839
*1680 FILLER_11_841
*1681 FILLER_11_853
*1682 FILLER_11_865
*1683 FILLER_11_877
*1684 FILLER_11_889
*1685 FILLER_11_895
*1686 FILLER_11_897
*1687 FILLER_11_909
*1688 FILLER_11_921
*1689 FILLER_11_93
*1690 FILLER_11_933
*1691 FILLER_11_948
*1692 FILLER_12_109
*1693 FILLER_12_121
*1694 FILLER_12_133
*1695 FILLER_12_139
*1696 FILLER_12_141
*1697 FILLER_12_153
*1698 FILLER_12_165
*1699 FILLER_12_177
*1700 FILLER_12_18
*1701 FILLER_12_189
*1702 FILLER_12_195
*1703 FILLER_12_197
*1704 FILLER_12_209
*1705 FILLER_12_221
*1706 FILLER_12_233
*1707 FILLER_12_245
*1708 FILLER_12_251
*1709 FILLER_12_253
*1710 FILLER_12_26
*1711 FILLER_12_265
*1712 FILLER_12_277
*1713 FILLER_12_289
*1714 FILLER_12_29
*1715 FILLER_12_301
*1716 FILLER_12_307
*1717 FILLER_12_309
*1718 FILLER_12_321
*1719 FILLER_12_333
*1720 FILLER_12_345
*1721 FILLER_12_357
*1722 FILLER_12_363
*1723 FILLER_12_365
*1724 FILLER_12_377
*1725 FILLER_12_381
*1726 FILLER_12_391
*1727 FILLER_12_400
*1728 FILLER_12_41
*1729 FILLER_12_411
*1730 FILLER_12_419
*1731 FILLER_12_421
*1732 FILLER_12_433
*1733 FILLER_12_445
*1734 FILLER_12_449
*1735 FILLER_12_468
*1736 FILLER_12_477
*1737 FILLER_12_485
*1738 FILLER_12_489
*1739 FILLER_12_508
*1740 FILLER_12_520
*1741 FILLER_12_53
*1742 FILLER_12_552
*1743 FILLER_12_558
*1744 FILLER_12_577
*1745 FILLER_12_585
*1746 FILLER_12_592
*1747 FILLER_12_6
*1748 FILLER_12_604
*1749 FILLER_12_616
*1750 FILLER_12_628
*1751 FILLER_12_640
*1752 FILLER_12_645
*1753 FILLER_12_65
*1754 FILLER_12_657
*1755 FILLER_12_669
*1756 FILLER_12_681
*1757 FILLER_12_693
*1758 FILLER_12_699
*1759 FILLER_12_701
*1760 FILLER_12_713
*1761 FILLER_12_725
*1762 FILLER_12_738
*1763 FILLER_12_750
*1764 FILLER_12_757
*1765 FILLER_12_769
*1766 FILLER_12_77
*1767 FILLER_12_781
*1768 FILLER_12_793
*1769 FILLER_12_805
*1770 FILLER_12_811
*1771 FILLER_12_813
*1772 FILLER_12_825
*1773 FILLER_12_83
*1774 FILLER_12_837
*1775 FILLER_12_849
*1776 FILLER_12_85
*1777 FILLER_12_861
*1778 FILLER_12_867
*1779 FILLER_12_869
*1780 FILLER_12_881
*1781 FILLER_12_893
*1782 FILLER_12_905
*1783 FILLER_12_917
*1784 FILLER_12_923
*1785 FILLER_12_925
*1786 FILLER_12_937
*1787 FILLER_12_948
*1788 FILLER_12_97
*1789 FILLER_13_105
*1790 FILLER_13_111
*1791 FILLER_13_113
*1792 FILLER_13_125
*1793 FILLER_13_137
*1794 FILLER_13_149
*1795 FILLER_13_15
*1796 FILLER_13_161
*1797 FILLER_13_167
*1798 FILLER_13_169
*1799 FILLER_13_181
*1800 FILLER_13_193
*1801 FILLER_13_205
*1802 FILLER_13_217
*1803 FILLER_13_223
*1804 FILLER_13_225
*1805 FILLER_13_237
*1806 FILLER_13_249
*1807 FILLER_13_261
*1808 FILLER_13_27
*1809 FILLER_13_273
*1810 FILLER_13_279
*1811 FILLER_13_281
*1812 FILLER_13_293
*1813 FILLER_13_3
*1814 FILLER_13_305
*1815 FILLER_13_320
*1816 FILLER_13_332
*1817 FILLER_13_337
*1818 FILLER_13_345
*1819 FILLER_13_357
*1820 FILLER_13_369
*1821 FILLER_13_386
*1822 FILLER_13_39
*1823 FILLER_13_399
*1824 FILLER_13_423
*1825 FILLER_13_442
*1826 FILLER_13_456
*1827 FILLER_13_468
*1828 FILLER_13_476
*1829 FILLER_13_481
*1830 FILLER_13_501
*1831 FILLER_13_505
*1832 FILLER_13_51
*1833 FILLER_13_517
*1834 FILLER_13_524
*1835 FILLER_13_543
*1836 FILLER_13_549
*1837 FILLER_13_55
*1838 FILLER_13_557
*1839 FILLER_13_57
*1840 FILLER_13_577
*1841 FILLER_13_583
*1842 FILLER_13_595
*1843 FILLER_13_607
*1844 FILLER_13_611
*1845 FILLER_13_615
*1846 FILLER_13_617
*1847 FILLER_13_629
*1848 FILLER_13_633
*1849 FILLER_13_650
*1850 FILLER_13_662
*1851 FILLER_13_670
*1852 FILLER_13_673
*1853 FILLER_13_685
*1854 FILLER_13_69
*1855 FILLER_13_691
*1856 FILLER_13_703