*SPEF "ieee 1481-1999"
*DESIGN "rvj1_caravel_soc"
*DATE "11:11:11 Fri 11 11, 1111"
*VENDOR "OpenRCX"
*PROGRAM "Parallel Extraction"
*VERSION "1.0"
*DESIGN_FLOW "NAME_SCOPE LOCAL" "PIN_CAP NONE"
*DIVIDER /
*DELIMITER :
*BUS_DELIMITER []
*T_UNIT 1 NS
*C_UNIT 1 PF
*R_UNIT 1 OHM
*L_UNIT 1 HENRY

*NAME_MAP
*1 cpu2dmux_ack
*2 cpu2dmux_addr[0]
*3 cpu2dmux_addr[10]
*4 cpu2dmux_addr[11]
*5 cpu2dmux_addr[12]
*6 cpu2dmux_addr[13]
*7 cpu2dmux_addr[14]
*8 cpu2dmux_addr[15]
*9 cpu2dmux_addr[16]
*10 cpu2dmux_addr[17]
*11 cpu2dmux_addr[18]
*12 cpu2dmux_addr[19]
*13 cpu2dmux_addr[1]
*14 cpu2dmux_addr[20]
*15 cpu2dmux_addr[21]
*16 cpu2dmux_addr[22]
*17 cpu2dmux_addr[23]
*18 cpu2dmux_addr[24]
*19 cpu2dmux_addr[25]
*20 cpu2dmux_addr[26]
*21 cpu2dmux_addr[27]
*22 cpu2dmux_addr[28]
*23 cpu2dmux_addr[29]
*24 cpu2dmux_addr[2]
*25 cpu2dmux_addr[30]
*26 cpu2dmux_addr[31]
*27 cpu2dmux_addr[3]
*28 cpu2dmux_addr[4]
*29 cpu2dmux_addr[5]
*30 cpu2dmux_addr[6]
*31 cpu2dmux_addr[7]
*32 cpu2dmux_addr[8]
*33 cpu2dmux_addr[9]
*34 cpu2dmux_bl[0]
*35 cpu2dmux_bl[1]
*36 cpu2dmux_bl[2]
*37 cpu2dmux_bl[3]
*38 cpu2dmux_bl[4]
*39 cpu2dmux_bl[5]
*40 cpu2dmux_bl[6]
*41 cpu2dmux_bl[7]
*42 cpu2dmux_bl[8]
*43 cpu2dmux_bl[9]
*44 cpu2dmux_bry
*45 cpu2dmux_cyc
*46 cpu2dmux_rdata[0]
*47 cpu2dmux_rdata[10]
*48 cpu2dmux_rdata[11]
*49 cpu2dmux_rdata[12]
*50 cpu2dmux_rdata[13]
*51 cpu2dmux_rdata[14]
*52 cpu2dmux_rdata[15]
*53 cpu2dmux_rdata[16]
*54 cpu2dmux_rdata[17]
*55 cpu2dmux_rdata[18]
*56 cpu2dmux_rdata[19]
*57 cpu2dmux_rdata[1]
*58 cpu2dmux_rdata[20]
*59 cpu2dmux_rdata[21]
*60 cpu2dmux_rdata[22]
*61 cpu2dmux_rdata[23]
*62 cpu2dmux_rdata[24]
*63 cpu2dmux_rdata[25]
*64 cpu2dmux_rdata[26]
*65 cpu2dmux_rdata[27]
*66 cpu2dmux_rdata[28]
*67 cpu2dmux_rdata[29]
*68 cpu2dmux_rdata[2]
*69 cpu2dmux_rdata[30]
*70 cpu2dmux_rdata[31]
*71 cpu2dmux_rdata[3]
*72 cpu2dmux_rdata[4]
*73 cpu2dmux_rdata[5]
*74 cpu2dmux_rdata[6]
*75 cpu2dmux_rdata[7]
*76 cpu2dmux_rdata[8]
*77 cpu2dmux_rdata[9]
*78 cpu2dmux_sel[0]
*79 cpu2dmux_sel[1]
*80 cpu2dmux_sel[2]
*81 cpu2dmux_sel[3]
*82 cpu2dmux_stb
*83 cpu2dmux_wdata[0]
*84 cpu2dmux_wdata[10]
*85 cpu2dmux_wdata[11]
*86 cpu2dmux_wdata[12]
*87 cpu2dmux_wdata[13]
*88 cpu2dmux_wdata[14]
*89 cpu2dmux_wdata[15]
*90 cpu2dmux_wdata[16]
*91 cpu2dmux_wdata[17]
*92 cpu2dmux_wdata[18]
*93 cpu2dmux_wdata[19]
*94 cpu2dmux_wdata[1]
*95 cpu2dmux_wdata[20]
*96 cpu2dmux_wdata[21]
*97 cpu2dmux_wdata[22]
*98 cpu2dmux_wdata[23]
*99 cpu2dmux_wdata[24]
*100 cpu2dmux_wdata[25]
*101 cpu2dmux_wdata[26]
*102 cpu2dmux_wdata[27]
*103 cpu2dmux_wdata[28]
*104 cpu2dmux_wdata[29]
*105 cpu2dmux_wdata[2]
*106 cpu2dmux_wdata[30]
*107 cpu2dmux_wdata[31]
*108 cpu2dmux_wdata[3]
*109 cpu2dmux_wdata[4]
*110 cpu2dmux_wdata[5]
*111 cpu2dmux_wdata[6]
*112 cpu2dmux_wdata[7]
*113 cpu2dmux_wdata[8]
*114 cpu2dmux_wdata[9]
*115 cpu2dmux_we
*116 cpu2imux_ack
*117 cpu2imux_addr[0]
*118 cpu2imux_addr[10]
*119 cpu2imux_addr[11]
*120 cpu2imux_addr[12]
*121 cpu2imux_addr[13]
*122 cpu2imux_addr[14]
*123 cpu2imux_addr[15]
*124 cpu2imux_addr[16]
*125 cpu2imux_addr[17]
*126 cpu2imux_addr[18]
*127 cpu2imux_addr[19]
*128 cpu2imux_addr[1]
*129 cpu2imux_addr[20]
*130 cpu2imux_addr[21]
*131 cpu2imux_addr[22]
*132 cpu2imux_addr[23]
*133 cpu2imux_addr[24]
*134 cpu2imux_addr[25]
*135 cpu2imux_addr[26]
*136 cpu2imux_addr[27]
*137 cpu2imux_addr[28]
*138 cpu2imux_addr[29]
*139 cpu2imux_addr[2]
*140 cpu2imux_addr[30]
*141 cpu2imux_addr[31]
*142 cpu2imux_addr[3]
*143 cpu2imux_addr[4]
*144 cpu2imux_addr[5]
*145 cpu2imux_addr[6]
*146 cpu2imux_addr[7]
*147 cpu2imux_addr[8]
*148 cpu2imux_addr[9]
*149 cpu2imux_bl[0]
*150 cpu2imux_bl[1]
*151 cpu2imux_bl[2]
*152 cpu2imux_bl[3]
*153 cpu2imux_bl[4]
*154 cpu2imux_bl[5]
*155 cpu2imux_bl[6]
*156 cpu2imux_bl[7]
*157 cpu2imux_bl[8]
*158 cpu2imux_bl[9]
*159 cpu2imux_bry
*160 cpu2imux_cyc
*161 cpu2imux_rdata[0]
*162 cpu2imux_rdata[10]
*163 cpu2imux_rdata[11]
*164 cpu2imux_rdata[12]
*165 cpu2imux_rdata[13]
*166 cpu2imux_rdata[14]
*167 cpu2imux_rdata[15]
*168 cpu2imux_rdata[16]
*169 cpu2imux_rdata[17]
*170 cpu2imux_rdata[18]
*171 cpu2imux_rdata[19]
*172 cpu2imux_rdata[1]
*173 cpu2imux_rdata[20]
*174 cpu2imux_rdata[21]
*175 cpu2imux_rdata[22]
*176 cpu2imux_rdata[23]
*177 cpu2imux_rdata[24]
*178 cpu2imux_rdata[25]
*179 cpu2imux_rdata[26]
*180 cpu2imux_rdata[27]
*181 cpu2imux_rdata[28]
*182 cpu2imux_rdata[29]
*183 cpu2imux_rdata[2]
*184 cpu2imux_rdata[30]
*185 cpu2imux_rdata[31]
*186 cpu2imux_rdata[3]
*187 cpu2imux_rdata[4]
*188 cpu2imux_rdata[5]
*189 cpu2imux_rdata[6]
*190 cpu2imux_rdata[7]
*191 cpu2imux_rdata[8]
*192 cpu2imux_rdata[9]
*193 cpu2imux_stb
*194 cpu2imux_we
*195 dram_addr0[0]
*196 dram_addr0[1]
*197 dram_addr0[2]
*198 dram_addr0[3]
*199 dram_addr0[4]
*200 dram_addr0[5]
*201 dram_addr0[6]
*202 dram_addr0[7]
*203 dram_clk0
*204 dram_csb0
*205 dram_din0[0]
*206 dram_din0[10]
*207 dram_din0[11]
*208 dram_din0[12]
*209 dram_din0[13]
*210 dram_din0[14]
*211 dram_din0[15]
*212 dram_din0[16]
*213 dram_din0[17]
*214 dram_din0[18]
*215 dram_din0[19]
*216 dram_din0[1]
*217 dram_din0[20]
*218 dram_din0[21]
*219 dram_din0[22]
*220 dram_din0[23]
*221 dram_din0[24]
*222 dram_din0[25]
*223 dram_din0[26]
*224 dram_din0[27]
*225 dram_din0[28]
*226 dram_din0[29]
*227 dram_din0[2]
*228 dram_din0[30]
*229 dram_din0[31]
*230 dram_din0[3]
*231 dram_din0[4]
*232 dram_din0[5]
*233 dram_din0[6]
*234 dram_din0[7]
*235 dram_din0[8]
*236 dram_din0[9]
*237 dram_dout0[0]
*238 dram_dout0[10]
*239 dram_dout0[11]
*240 dram_dout0[12]
*241 dram_dout0[13]
*242 dram_dout0[14]
*243 dram_dout0[15]
*244 dram_dout0[16]
*245 dram_dout0[17]
*246 dram_dout0[18]
*247 dram_dout0[19]
*248 dram_dout0[1]
*249 dram_dout0[20]
*250 dram_dout0[21]
*251 dram_dout0[22]
*252 dram_dout0[23]
*253 dram_dout0[24]
*254 dram_dout0[25]
*255 dram_dout0[26]
*256 dram_dout0[27]
*257 dram_dout0[28]
*258 dram_dout0[29]
*259 dram_dout0[2]
*260 dram_dout0[30]
*261 dram_dout0[31]
*262 dram_dout0[3]
*263 dram_dout0[4]
*264 dram_dout0[5]
*265 dram_dout0[6]
*266 dram_dout0[7]
*267 dram_dout0[8]
*268 dram_dout0[9]
*269 dram_web0
*270 dram_wmask0[0]
*271 dram_wmask0[1]
*272 dram_wmask0[2]
*273 dram_wmask0[3]
*274 gpio_in[0]
*275 gpio_in[10]
*276 gpio_in[11]
*277 gpio_in[12]
*278 gpio_in[13]
*279 gpio_in[14]
*280 gpio_in[15]
*281 gpio_in[16]
*282 gpio_in[17]
*283 gpio_in[18]
*284 gpio_in[19]
*285 gpio_in[1]
*286 gpio_in[20]
*287 gpio_in[21]
*288 gpio_in[22]
*289 gpio_in[23]
*290 gpio_in[2]
*291 gpio_in[3]
*292 gpio_in[4]
*293 gpio_in[5]
*294 gpio_in[6]
*295 gpio_in[7]
*296 gpio_in[8]
*297 gpio_in[9]
*298 net633
*299 net643
*300 net644
*301 net645
*302 net646
*303 net647
*304 net648
*305 net649
*306 net650
*307 net651
*308 net652
*309 net634
*310 net653
*311 net654
*312 net655
*313 net656
*314 net657
*315 net658
*316 net659
*317 net660
*318 net661
*319 net662
*320 net635
*321 net663
*322 net664
*323 net665
*324 net666
*325 net667
*326 net668
*327 net669
*328 net670
*329 net636
*330 net637
*331 net638
*332 net639
*333 net640
*334 net641
*335 net642
*336 gpio_out[0]
*337 gpio_out[10]
*338 gpio_out[11]
*339 gpio_out[12]
*340 gpio_out[13]
*341 gpio_out[14]
*342 gpio_out[15]
*343 gpio_out[16]
*344 gpio_out[17]
*345 gpio_out[18]
*346 gpio_out[19]
*347 gpio_out[1]
*348 gpio_out[20]
*349 gpio_out[21]
*350 gpio_out[22]
*351 gpio_out[23]
*352 gpio_out[2]
*353 gpio_out[3]
*354 gpio_out[4]
*355 gpio_out[5]
*356 gpio_out[6]
*357 gpio_out[7]
*358 gpio_out[8]
*359 gpio_out[9]
*360 iram_addr0[0]
*361 iram_addr0[1]
*362 iram_addr0[2]
*363 iram_addr0[3]
*364 iram_addr0[4]
*365 iram_addr0[5]
*366 iram_addr0[6]
*367 iram_addr0[7]
*368 iram_clk0
*369 iram_csb0_A
*370 iram_csb0_B
*371 iram_din0[0]
*372 iram_din0[10]
*373 iram_din0[11]
*374 iram_din0[12]
*375 iram_din0[13]
*376 iram_din0[14]
*377 iram_din0[15]
*378 iram_din0[16]
*379 iram_din0[17]
*380 iram_din0[18]
*381 iram_din0[19]
*382 iram_din0[1]
*383 iram_din0[20]
*384 iram_din0[21]
*385 iram_din0[22]
*386 iram_din0[23]
*387 iram_din0[24]
*388 iram_din0[25]
*389 iram_din0[26]
*390 iram_din0[27]
*391 iram_din0[28]
*392 iram_din0[29]
*393 iram_din0[2]
*394 iram_din0[30]
*395 iram_din0[31]
*396 iram_din0[3]
*397 iram_din0[4]
*398 iram_din0[5]
*399 iram_din0[6]
*400 iram_din0[7]
*401 iram_din0[8]
*402 iram_din0[9]
*403 iram_dout0_A[0]
*404 iram_dout0_A[10]
*405 iram_dout0_A[11]
*406 iram_dout0_A[12]
*407 iram_dout0_A[13]
*408 iram_dout0_A[14]
*409 iram_dout0_A[15]
*410 iram_dout0_A[16]
*411 iram_dout0_A[17]
*412 iram_dout0_A[18]
*413 iram_dout0_A[19]
*414 iram_dout0_A[1]
*415 iram_dout0_A[20]
*416 iram_dout0_A[21]
*417 iram_dout0_A[22]
*418 iram_dout0_A[23]
*419 iram_dout0_A[24]
*420 iram_dout0_A[25]
*421 iram_dout0_A[26]
*422 iram_dout0_A[27]
*423 iram_dout0_A[28]
*424 iram_dout0_A[29]
*425 iram_dout0_A[2]
*426 iram_dout0_A[30]
*427 iram_dout0_A[31]
*428 iram_dout0_A[3]
*429 iram_dout0_A[4]
*430 iram_dout0_A[5]
*431 iram_dout0_A[6]
*432 iram_dout0_A[7]
*433 iram_dout0_A[8]
*434 iram_dout0_A[9]
*435 iram_dout0_B[0]
*436 iram_dout0_B[10]
*437 iram_dout0_B[11]
*438 iram_dout0_B[12]
*439 iram_dout0_B[13]
*440 iram_dout0_B[14]
*441 iram_dout0_B[15]
*442 iram_dout0_B[16]
*443 iram_dout0_B[17]
*444 iram_dout0_B[18]
*445 iram_dout0_B[19]
*446 iram_dout0_B[1]
*447 iram_dout0_B[20]
*448 iram_dout0_B[21]
*449 iram_dout0_B[22]
*450 iram_dout0_B[23]
*451 iram_dout0_B[24]
*452 iram_dout0_B[25]
*453 iram_dout0_B[26]
*454 iram_dout0_B[27]
*455 iram_dout0_B[28]
*456 iram_dout0_B[29]
*457 iram_dout0_B[2]
*458 iram_dout0_B[30]
*459 iram_dout0_B[31]
*460 iram_dout0_B[3]
*461 iram_dout0_B[4]
*462 iram_dout0_B[5]
*463 iram_dout0_B[6]
*464 iram_dout0_B[7]
*465 iram_dout0_B[8]
*466 iram_dout0_B[9]
*467 iram_web0
*468 iram_wmask0[0]
*469 iram_wmask0[1]
*470 iram_wmask0[2]
*471 iram_wmask0[3]
*472 la_data_in[0]
*473 la_data_in[100]
*474 la_data_in[101]
*475 la_data_in[102]
*476 la_data_in[103]
*477 la_data_in[104]
*478 la_data_in[105]
*479 la_data_in[106]
*480 la_data_in[107]
*481 la_data_in[108]
*482 la_data_in[109]
*483 la_data_in[10]
*484 la_data_in[110]
*485 la_data_in[111]
*486 la_data_in[112]
*487 la_data_in[113]
*488 la_data_in[114]
*489 la_data_in[115]
*490 la_data_in[116]
*491 la_data_in[117]
*492 la_data_in[118]
*493 la_data_in[119]
*494 la_data_in[11]
*495 la_data_in[120]
*496 la_data_in[121]
*497 la_data_in[122]
*498 la_data_in[123]
*499 la_data_in[124]
*500 la_data_in[125]
*501 la_data_in[126]
*502 la_data_in[127]
*503 la_data_in[12]
*504 la_data_in[13]
*505 la_data_in[14]
*506 la_data_in[15]
*507 la_data_in[16]
*508 la_data_in[17]
*509 la_data_in[18]
*510 la_data_in[19]
*511 la_data_in[1]
*512 la_data_in[20]
*513 la_data_in[21]
*514 la_data_in[22]
*515 la_data_in[23]
*516 la_data_in[24]
*517 la_data_in[25]
*518 la_data_in[26]
*519 la_data_in[27]
*520 la_data_in[28]
*521 la_data_in[29]
*522 la_data_in[2]
*523 la_data_in[30]
*524 la_data_in[31]
*525 la_data_in[32]
*526 la_data_in[33]
*527 la_data_in[34]
*528 la_data_in[35]
*529 la_data_in[36]
*530 la_data_in[37]
*531 la_data_in[38]
*532 la_data_in[39]
*533 la_data_in[3]
*534 la_data_in[40]
*535 la_data_in[41]
*536 la_data_in[42]
*537 la_data_in[43]
*538 la_data_in[44]
*539 la_data_in[45]
*540 la_data_in[46]
*541 la_data_in[47]
*542 la_data_in[48]
*543 la_data_in[49]
*544 la_data_in[4]
*545 la_data_in[50]
*546 la_data_in[51]
*547 la_data_in[52]
*548 la_data_in[53]
*549 la_data_in[54]
*550 la_data_in[55]
*551 la_data_in[56]
*552 la_data_in[57]
*553 la_data_in[58]
*554 la_data_in[59]
*555 la_data_in[5]
*556 la_data_in[60]
*557 la_data_in[61]
*558 la_data_in[62]
*559 la_data_in[63]
*560 la_data_in[64]
*561 la_data_in[65]
*562 la_data_in[66]
*563 la_data_in[67]
*564 la_data_in[68]
*565 la_data_in[69]
*566 la_data_in[6]
*567 la_data_in[70]
*568 la_data_in[71]
*569 la_data_in[72]
*570 la_data_in[73]
*571 la_data_in[74]
*572 la_data_in[75]
*573 la_data_in[76]
*574 la_data_in[77]
*575 la_data_in[78]
*576 la_data_in[79]
*577 la_data_in[7]
*578 la_data_in[80]
*579 la_data_in[81]
*580 la_data_in[82]
*581 la_data_in[83]
*582 la_data_in[84]
*583 la_data_in[85]
*584 la_data_in[86]
*585 la_data_in[87]
*586 la_data_in[88]
*587 la_data_in[89]
*588 la_data_in[8]
*589 la_data_in[90]
*590 la_data_in[91]
*591 la_data_in[92]
*592 la_data_in[93]
*593 la_data_in[94]
*594 la_data_in[95]
*595 la_data_in[96]
*596 la_data_in[97]
*597 la_data_in[98]
*598 la_data_in[99]
*599 la_data_in[9]
*600 net671
*601 la_data_out[100]
*602 la_data_out[101]
*603 la_data_out[102]
*604 la_data_out[103]
*605 la_data_out[104]
*606 la_data_out[105]
*607 la_data_out[106]
*608 la_data_out[107]
*609 la_data_out[108]
*610 la_data_out[109]
*611 la_data_out[10]
*612 la_data_out[110]
*613 la_data_out[111]
*614 la_data_out[112]
*615 la_data_out[113]
*616 la_data_out[114]
*617 la_data_out[115]
*618 la_data_out[116]
*619 la_data_out[117]
*620 la_data_out[118]
*621 la_data_out[119]
*622 la_data_out[11]
*623 la_data_out[120]
*624 la_data_out[121]
*625 net673
*626 net674
*627 net675
*628 net676
*629 net677
*630 net678
*631 la_data_out[12]
*632 la_data_out[13]
*633 la_data_out[14]
*634 la_data_out[15]
*635 la_data_out[16]
*636 la_data_out[17]
*637 la_data_out[18]
*638 la_data_out[19]
*639 net672
*640 la_data_out[20]
*641 la_data_out[21]
*642 la_data_out[22]
*643 la_data_out[23]
*644 la_data_out[24]
*645 la_data_out[25]
*646 la_data_out[26]
*647 la_data_out[27]
*648 la_data_out[28]
*649 la_data_out[29]
*650 la_data_out[2]
*651 la_data_out[30]
*652 la_data_out[31]
*653 la_data_out[32]
*654 la_data_out[33]
*655 la_data_out[34]
*656 la_data_out[35]
*657 la_data_out[36]
*658 la_data_out[37]
*659 la_data_out[38]
*660 la_data_out[39]
*661 la_data_out[3]
*662 la_data_out[40]
*663 la_data_out[41]
*664 la_data_out[42]
*665 la_data_out[43]
*666 la_data_out[44]
*667 la_data_out[45]
*668 la_data_out[46]
*669 la_data_out[47]
*670 la_data_out[48]
*671 la_data_out[49]
*672 la_data_out[4]
*673 la_data_out[50]
*674 la_data_out[51]
*675 la_data_out[52]
*676 la_data_out[53]
*677 la_data_out[54]
*678 la_data_out[55]
*679 la_data_out[56]
*680 la_data_out[57]
*681 la_data_out[58]
*682 la_data_out[59]
*683 la_data_out[5]
*684 la_data_out[60]
*685 la_data_out[61]
*686 la_data_out[62]
*687 la_data_out[63]
*688 la_data_out[64]
*689 la_data_out[65]
*690 la_data_out[66]
*691 la_data_out[67]
*692 la_data_out[68]
*693 la_data_out[69]
*694 la_data_out[6]
*695 la_data_out[70]
*696 la_data_out[71]
*697 la_data_out[72]
*698 la_data_out[73]
*699 la_data_out[74]
*700 la_data_out[75]
*701 la_data_out[76]
*702 la_data_out[77]
*703 la_data_out[78]
*704 la_data_out[79]
*705 la_data_out[7]
*706 la_data_out[80]
*707 la_data_out[81]
*708 la_data_out[82]
*709 la_data_out[83]
*710 la_data_out[84]
*711 la_data_out[85]
*712 la_data_out[86]
*713 la_data_out[87]
*714 la_data_out[88]
*715 la_data_out[89]
*716 la_data_out[8]
*717 la_data_out[90]
*718 la_data_out[91]
*719 la_data_out[92]
*720 la_data_out[93]
*721 la_data_out[94]
*722 la_data_out[95]
*723 la_data_out[96]
*724 la_data_out[97]
*725 la_data_out[98]
*726 la_data_out[99]
*727 la_data_out[9]
*728 la_oenb[0]
*729 la_oenb[100]
*730 la_oenb[101]
*731 la_oenb[102]
*732 la_oenb[103]
*733 la_oenb[104]
*734 la_oenb[105]
*735 la_oenb[106]
*736 la_oenb[107]
*737 la_oenb[108]
*738 la_oenb[109]
*739 la_oenb[10]
*740 la_oenb[110]
*741 la_oenb[111]
*742 la_oenb[112]
*743 la_oenb[113]
*744 la_oenb[114]
*745 la_oenb[115]
*746 la_oenb[116]
*747 la_oenb[117]
*748 la_oenb[118]
*749 la_oenb[119]
*750 la_oenb[11]
*751 la_oenb[120]
*752 la_oenb[121]
*753 la_oenb[122]
*754 la_oenb[123]
*755 la_oenb[124]
*756 la_oenb[125]
*757 la_oenb[126]
*758 la_oenb[127]
*759 la_oenb[12]
*760 la_oenb[13]
*761 la_oenb[14]
*762 la_oenb[15]
*763 la_oenb[16]
*764 la_oenb[17]
*765 la_oenb[18]
*766 la_oenb[19]
*767 la_oenb[1]
*768 la_oenb[20]
*769 la_oenb[21]
*770 la_oenb[22]
*771 la_oenb[23]
*772 la_oenb[24]
*773 la_oenb[25]
*774 la_oenb[26]
*775 la_oenb[27]
*776 la_oenb[28]
*777 la_oenb[29]
*778 la_oenb[2]
*779 la_oenb[30]
*780 la_oenb[31]
*781 la_oenb[32]
*782 la_oenb[33]
*783 la_oenb[34]
*784 la_oenb[35]
*785 la_oenb[36]
*786 la_oenb[37]
*787 la_oenb[38]
*788 la_oenb[39]
*789 la_oenb[3]
*790 la_oenb[40]
*791 la_oenb[41]
*792 la_oenb[42]
*793 la_oenb[43]
*794 la_oenb[44]
*795 la_oenb[45]
*796 la_oenb[46]
*797 la_oenb[47]
*798 la_oenb[48]
*799 la_oenb[49]
*800 la_oenb[4]
*801 la_oenb[50]
*802 la_oenb[51]
*803 la_oenb[52]
*804 la_oenb[53]
*805 la_oenb[54]
*806 la_oenb[55]
*807 la_oenb[56]
*808 la_oenb[57]
*809 la_oenb[58]
*810 la_oenb[59]
*811 la_oenb[5]
*812 la_oenb[60]
*813 la_oenb[61]
*814 la_oenb[62]
*815 la_oenb[63]
*816 la_oenb[64]
*817 la_oenb[65]
*818 la_oenb[66]
*819 la_oenb[67]
*820 la_oenb[68]
*821 la_oenb[69]
*822 la_oenb[6]
*823 la_oenb[70]
*824 la_oenb[71]
*825 la_oenb[72]
*826 la_oenb[73]
*827 la_oenb[74]
*828 la_oenb[75]
*829 la_oenb[76]
*830 la_oenb[77]
*831 la_oenb[78]
*832 la_oenb[79]
*833 la_oenb[7]
*834 la_oenb[80]
*835 la_oenb[81]
*836 la_oenb[82]
*837 la_oenb[83]
*838 la_oenb[84]
*839 la_oenb[85]
*840 la_oenb[86]
*841 la_oenb[87]
*842 la_oenb[88]
*843 la_oenb[89]
*844 la_oenb[8]
*845 la_oenb[90]
*846 la_oenb[91]
*847 la_oenb[92]
*848 la_oenb[93]
*849 la_oenb[94]
*850 la_oenb[95]
*851 la_oenb[96]
*852 la_oenb[97]
*853 la_oenb[98]
*854 la_oenb[99]
*855 la_oenb[9]
*856 net679
*857 net680
*858 net681
*861 wb_clk_i
*862 wb_rst_i
*863 wbs_ack_o
*864 wbs_adr_i[0]
*865 wbs_adr_i[10]
*866 wbs_adr_i[11]
*867 wbs_adr_i[12]
*868 wbs_adr_i[13]
*869 wbs_adr_i[14]
*870 wbs_adr_i[15]
*871 wbs_adr_i[16]
*872 wbs_adr_i[17]
*873 wbs_adr_i[18]
*874 wbs_adr_i[19]
*875 wbs_adr_i[1]
*876 wbs_adr_i[20]
*877 wbs_adr_i[21]
*878 wbs_adr_i[22]
*879 wbs_adr_i[23]
*880 wbs_adr_i[24]
*881 wbs_adr_i[25]
*882 wbs_adr_i[26]
*883 wbs_adr_i[27]
*884 wbs_adr_i[28]
*885 wbs_adr_i[29]
*886 wbs_adr_i[2]
*887 wbs_adr_i[30]
*888 wbs_adr_i[31]
*889 wbs_adr_i[3]
*890 wbs_adr_i[4]
*891 wbs_adr_i[5]
*892 wbs_adr_i[6]
*893 wbs_adr_i[7]
*894 wbs_adr_i[8]
*895 wbs_adr_i[9]
*896 wbs_cyc_i
*897 wbs_dat_i[0]
*898 wbs_dat_i[10]
*899 wbs_dat_i[11]
*900 wbs_dat_i[12]
*901 wbs_dat_i[13]
*902 wbs_dat_i[14]
*903 wbs_dat_i[15]
*904 wbs_dat_i[16]
*905 wbs_dat_i[17]
*906 wbs_dat_i[18]
*907 wbs_dat_i[19]
*908 wbs_dat_i[1]
*909 wbs_dat_i[20]
*910 wbs_dat_i[21]
*911 wbs_dat_i[22]
*912 wbs_dat_i[23]
*913 wbs_dat_i[24]
*914 wbs_dat_i[25]
*915 wbs_dat_i[26]
*916 wbs_dat_i[27]
*917 wbs_dat_i[28]
*918 wbs_dat_i[29]
*919 wbs_dat_i[2]
*920 wbs_dat_i[30]
*921 wbs_dat_i[31]
*922 wbs_dat_i[3]
*923 wbs_dat_i[4]
*924 wbs_dat_i[5]
*925 wbs_dat_i[6]
*926 wbs_dat_i[7]
*927 wbs_dat_i[8]
*928 wbs_dat_i[9]
*929 wbs_dat_o[0]
*930 wbs_dat_o[10]
*931 wbs_dat_o[11]
*932 wbs_dat_o[12]
*933 wbs_dat_o[13]
*934 wbs_dat_o[14]
*935 wbs_dat_o[15]
*936 wbs_dat_o[16]
*937 wbs_dat_o[17]
*938 wbs_dat_o[18]
*939 wbs_dat_o[19]
*940 wbs_dat_o[1]
*941 wbs_dat_o[20]
*942 wbs_dat_o[21]
*943 wbs_dat_o[22]
*944 wbs_dat_o[23]
*945 wbs_dat_o[24]
*946 wbs_dat_o[25]
*947 wbs_dat_o[26]
*948 wbs_dat_o[27]
*949 wbs_dat_o[28]
*950 wbs_dat_o[29]
*951 wbs_dat_o[2]
*952 wbs_dat_o[30]
*953 wbs_dat_o[31]
*954 wbs_dat_o[3]
*955 wbs_dat_o[4]
*956 wbs_dat_o[5]
*957 wbs_dat_o[6]
*958 wbs_dat_o[7]
*959 wbs_dat_o[8]
*960 wbs_dat_o[9]
*961 wbs_sel_i[0]
*962 wbs_sel_i[1]
*963 wbs_sel_i[2]
*964 wbs_sel_i[3]
*965 wbs_stb_i
*966 wbs_we_i
*967 _0004_
*968 _0005_
*969 _0006_
*970 _0007_
*971 _0008_
*972 _0009_
*973 _0010_
*974 _0011_
*975 _0012_
*976 _0013_
*977 _0014_
*978 _0015_
*979 _0016_
*980 _0017_
*981 _0018_
*982 _0019_
*983 _0020_
*984 _0021_
*985 _0022_
*986 _0023_
*987 _0024_
*988 _0025_
*989 _0026_
*990 _0027_
*991 _0028_
*992 _0029_
*993 _0030_
*994 _0031_
*995 _0032_
*996 _0033_
*997 _0034_
*998 _0035_
*999 _0036_
*1000 _0037_
*1001 _0038_
*1002 _0039_
*1003 _0040_
*1004 _0041_
*1005 _0042_
*1006 _0043_
*1007 _0044_
*1008 _0045_
*1009 _0046_
*1010 _0047_
*1011 _0048_
*1012 _0049_
*1013 _0050_
*1014 _0051_
*1015 _0052_
*1016 _0053_
*1017 _0054_
*1018 _0055_
*1019 _0056_
*1020 _0057_
*1021 _0058_
*1022 _0059_
*1023 _0060_
*1024 _0061_
*1025 _0062_
*1026 _0063_
*1027 _0064_
*1028 _0065_
*1029 _0066_
*1030 _0067_
*1031 _0068_
*1032 _0069_
*1033 _0070_
*1034 _0071_
*1035 _0072_
*1036 _0073_
*1037 _0074_
*1038 _0075_
*1039 _0076_
*1040 _0077_
*1041 _0078_
*1042 _0079_
*1043 _0080_
*1044 _0081_
*1045 _0082_
*1046 _0083_
*1047 _0084_
*1048 _0085_
*1049 _0086_
*1050 _0087_
*1051 _0088_
*1052 _0089_
*1053 _0090_
*1054 _0091_
*1055 _0092_
*1056 _0093_
*1057 _0094_
*1058 _0095_
*1059 _0096_
*1060 _0097_
*1061 _0098_
*1062 _0099_
*1063 _0100_
*1064 _0101_
*1065 _0102_
*1066 _0103_
*1067 _0104_
*1068 _0105_
*1069 _0106_
*1070 _0107_
*1071 _0108_
*1072 _0109_
*1073 _0110_
*1074 _0111_
*1075 _0112_
*1076 _0113_
*1077 _0114_
*1078 _0115_
*1079 _0116_
*1080 _0117_
*1081 _0118_
*1082 _0119_
*1083 _0120_
*1084 _0121_
*1085 _0122_
*1086 _0123_
*1087 _0124_
*1088 _0125_
*1089 _0126_
*1090 _0127_
*1091 _0128_
*1092 _0129_
*1093 _0130_
*1094 _0131_
*1095 _0132_
*1096 _0133_
*1097 _0134_
*1098 _0135_
*1099 _0136_
*1100 _0137_
*1101 _0138_
*1102 _0139_
*1103 _0140_
*1104 _0141_
*1105 _0142_
*1106 _0143_
*1107 _0144_
*1108 _0145_
*1109 _0146_
*1110 _0147_
*1111 _0148_
*1112 _0149_
*1113 _0150_
*1114 _0151_
*1115 _0152_
*1116 _0153_
*1117 _0154_
*1118 _0155_
*1119 _0156_
*1120 _0157_
*1121 _0158_
*1122 _0159_
*1123 _0160_
*1124 _0161_
*1125 _0162_
*1126 _0163_
*1127 _0164_
*1128 _0165_
*1129 _0166_
*1130 _0167_
*1131 _0168_
*1132 _0169_
*1133 _0170_
*1134 _0171_
*1135 _0172_
*1136 _0173_
*1137 _0174_
*1138 _0175_
*1139 _0176_
*1140 _0177_
*1141 _0178_
*1142 _0179_
*1143 _0180_
*1144 _0181_
*1145 _0182_
*1146 _0183_
*1147 _0184_
*1148 _0185_
*1149 _0186_
*1150 _0187_
*1151 _0188_
*1152 _0189_
*1153 _0190_
*1154 _0191_
*1155 _0192_
*1156 _0193_
*1157 _0194_
*1158 _0195_
*1159 _0196_
*1160 _0197_
*1161 _0198_
*1162 _0199_
*1163 _0200_
*1164 _0201_
*1165 _0202_
*1166 _0203_
*1167 _0204_
*1168 _0205_
*1169 _0206_
*1170 _0207_
*1171 _0208_
*1172 _0209_
*1173 _0210_
*1174 _0211_
*1175 _0212_
*1176 _0213_
*1177 _0214_
*1178 _0215_
*1179 _0216_
*1180 _0217_
*1181 _0218_
*1182 _0219_
*1183 _0220_
*1184 _0221_
*1185 _0222_
*1186 _0223_
*1187 _0224_
*1188 _0225_
*1189 _0226_
*1190 _0227_
*1191 _0228_
*1192 _0229_
*1193 _0230_
*1194 _0231_
*1195 _0232_
*1196 _0233_
*1197 _0234_
*1198 _0235_
*1199 _0236_
*1200 _0237_
*1201 _0238_
*1202 _0239_
*1203 _0240_
*1204 _0241_
*1205 _0242_
*1206 _0243_
*1207 _0244_
*1208 _0245_
*1209 _0246_
*1210 _0247_
*1211 _0248_
*1212 _0249_
*1213 _0250_
*1214 _0251_
*1215 _0252_
*1216 _0253_
*1217 _0254_
*1218 _0255_
*1219 _0256_
*1220 _0257_
*1221 _0258_
*1222 _0259_
*1223 _0260_
*1224 _0261_
*1225 _0262_
*1226 _0263_
*1227 _0264_
*1228 _0265_
*1229 _0266_
*1230 _0267_
*1231 _0268_
*1232 _0269_
*1233 _0270_
*1234 _0271_
*1235 _0272_
*1236 _0273_
*1237 _0274_
*1238 _0275_
*1239 _0276_
*1240 _0277_
*1241 _0278_
*1242 _0279_
*1243 _0280_
*1244 _0281_
*1245 _0282_
*1246 _0283_
*1247 _0284_
*1248 _0285_
*1249 _0286_
*1250 _0287_
*1251 _0288_
*1252 _0289_
*1253 _0290_
*1254 _0291_
*1255 _0292_
*1256 _0293_
*1257 _0294_
*1258 _0295_
*1259 _0296_
*1260 _0297_
*1261 _0298_
*1262 _0299_
*1263 _0300_
*1264 _0301_
*1265 _0302_
*1266 _0303_
*1267 _0304_
*1268 _0305_
*1269 _0306_
*1270 _0307_
*1271 _0308_
*1272 _0309_
*1273 _0310_
*1274 _0311_
*1275 _0312_
*1276 _0313_
*1277 _0314_
*1278 _0315_
*1279 _0316_
*1280 _0317_
*1281 _0318_
*1282 _0319_
*1283 _0320_
*1284 _0321_
*1285 _0322_
*1286 _0323_
*1287 _0324_
*1288 _0325_
*1289 _0326_
*1290 _0327_
*1291 _0328_
*1292 _0329_
*1293 _0330_
*1294 _0331_
*1295 _0332_
*1296 _0333_
*1297 _0334_
*1298 _0335_
*1299 _0336_
*1300 _0337_
*1301 _0338_
*1302 _0339_
*1303 _0340_
*1304 _0341_
*1305 _0342_
*1306 _0343_
*1307 _0344_
*1308 _0345_
*1309 _0346_
*1310 _0347_
*1311 _0348_
*1312 _0349_
*1313 _0350_
*1314 _0351_
*1315 _0352_
*1316 _0353_
*1317 _0354_
*1318 _0355_
*1319 _0356_
*1320 _0357_
*1321 _0358_
*1322 _0359_
*1323 _0360_
*1324 _0361_
*1325 _0362_
*1326 _0363_
*1327 _0364_
*1328 _0365_
*1329 _0366_
*1330 _0367_
*1331 _0368_
*1332 _0369_
*1333 _0370_
*1334 _0371_
*1335 _0372_
*1336 _0373_
*1337 _0374_
*1338 _0375_
*1339 _0376_
*1340 _0377_
*1341 _0378_
*1342 _0379_
*1343 _0380_
*1344 _0381_
*1345 _0382_
*1346 _0383_
*1347 _0384_
*1348 _0385_
*1349 _0386_
*1350 _0387_
*1351 _0388_
*1352 _0389_
*1353 _0390_
*1354 _0391_
*1355 _0392_
*1356 _0393_
*1357 _0394_
*1358 _0395_
*1359 _0396_
*1360 _0397_
*1361 _0398_
*1362 _0399_
*1363 _0400_
*1364 _0401_
*1365 _0402_
*1366 _0403_
*1367 _0404_
*1368 _0405_
*1369 _0406_
*1370 _0407_
*1371 _0408_
*1372 _0409_
*1373 _0410_
*1374 _0411_
*1375 _0412_
*1376 _0413_
*1377 _0414_
*1378 _0415_
*1379 _0416_
*1380 _0417_
*1381 _0418_
*1382 _0419_
*1383 _0420_
*1384 _0421_
*1385 _0422_
*1386 _0423_
*1387 _0424_
*1388 _0425_
*1389 _0426_
*1390 _0427_
*1391 _0428_
*1392 _0429_
*1393 _0430_
*1394 _0431_
*1395 _0432_
*1396 _0433_
*1397 _0434_
*1398 _0435_
*1399 _0436_
*1400 _0437_
*1401 _0438_
*1402 _0439_
*1403 _0440_
*1404 _0441_
*1405 _0442_
*1406 _0443_
*1407 _0444_
*1408 _0445_
*1409 _0446_
*1410 _0447_
*1411 _0448_
*1412 _0449_
*1413 _0450_
*1414 _0451_
*1415 _0452_
*1416 _0453_
*1417 _0454_
*1418 _0455_
*1419 _0456_
*1420 _0457_
*1421 _0458_
*1422 _0459_
*1423 _0460_
*1424 _0461_
*1425 _0462_
*1426 _0463_
*1427 _0464_
*1428 _0465_
*1429 _0466_
*1430 _0467_
*1431 _0468_
*1432 _0469_
*1433 _0470_
*1434 _0471_
*1435 _0472_
*1436 _0473_
*1437 _0474_
*1438 _0475_
*1439 _0476_
*1440 _0477_
*1441 _0478_
*1442 _0479_
*1443 _0480_
*1444 _0481_
*1445 _0482_
*1446 _0483_
*1447 _0484_
*1448 _0485_
*1449 _0486_
*1450 _0487_
*1451 _0488_
*1452 _0489_
*1453 _0490_
*1454 _0491_
*1455 _0492_
*1456 _0493_
*1457 _0494_
*1458 _0495_
*1459 _0496_
*1460 _0497_
*1461 _0498_
*1462 _0499_
*1463 _0500_
*1464 _0501_
*1465 _0502_
*1466 _0503_
*1467 _0504_
*1468 _0505_
*1469 _0506_
*1470 _0507_
*1471 _0508_
*1472 _0509_
*1473 _0510_
*1474 _0511_
*1475 _0512_
*1476 _0513_
*1477 _0514_
*1478 _0515_
*1479 _0516_
*1480 _0517_
*1481 _0518_
*1482 _0519_
*1483 _0520_
*1484 _0521_
*1485 _0522_
*1486 _0523_
*1487 _0524_
*1488 _0525_
*1489 _0526_
*1490 _0527_
*1491 _0528_
*1492 _0529_
*1493 _0530_
*1494 _0531_
*1495 _0532_
*1496 _0533_
*1497 _0534_
*1498 _0535_
*1499 _0536_
*1500 _0537_
*1501 _0538_
*1502 _0539_
*1503 _0540_
*1504 _0541_
*1505 _0542_
*1506 _0543_
*1507 _0544_
*1508 _0545_
*1509 _0546_
*1510 _0547_
*1511 _0548_
*1512 _0549_
*1513 _0550_
*1514 _0551_
*1515 _0552_
*1516 _0553_
*1517 _0554_
*1518 _0555_
*1519 _0556_
*1520 _0557_
*1521 _0558_
*1522 _0559_
*1523 _0560_
*1524 _0561_
*1525 _0562_
*1526 _0563_
*1527 _0564_
*1528 _0565_
*1529 _0566_
*1530 _0567_
*1531 _0568_
*1532 _0569_
*1533 _0570_
*1534 _0571_
*1535 _0572_
*1536 _0573_
*1537 _0574_
*1538 _0575_
*1539 _0576_
*1540 _0577_
*1541 _0578_
*1542 _0579_
*1543 _0580_
*1544 _0581_
*1545 _0582_
*1546 _0583_
*1547 _0584_
*1548 _0585_
*1549 _0586_
*1550 _0587_
*1551 _0588_
*1552 _0589_
*1553 _0590_
*1554 _0591_
*1555 _0592_
*1556 _0593_
*1557 _0594_
*1558 _0595_
*1559 _0596_
*1560 _0597_
*1561 _0598_
*1562 _0599_
*1563 _0600_
*1564 _0601_
*1565 _0602_
*1566 _0603_
*1567 _0604_
*1568 _0605_
*1569 _0606_
*1570 _0607_
*1571 _0608_
*1572 _0609_
*1573 _0610_
*1574 _0611_
*1575 _0612_
*1576 _0613_
*1577 _0614_
*1578 _0615_
*1579 _0616_
*1580 _0617_
*1581 _0618_
*1582 _0619_
*1583 _0620_
*1584 _0621_
*1585 _0622_
*1586 _0623_
*1587 _0624_
*1588 _0625_
*1589 _0626_
*1590 _0627_
*1591 _0628_
*1592 _0629_
*1593 _0630_
*1594 _0631_
*1595 _0632_
*1596 _0633_
*1597 _0634_
*1598 _0635_
*1599 _0636_
*1600 _0637_
*1601 _0638_
*1602 _0639_
*1603 _0640_
*1604 _0641_
*1605 _0642_
*1606 _0643_
*1607 _0644_
*1608 _0645_
*1609 _0646_
*1610 _0647_
*1611 _0648_
*1612 _0649_
*1613 _0650_
*1614 _0651_
*1615 _0652_
*1616 _0653_
*1617 _0654_
*1618 _0655_
*1619 _0656_
*1620 _0657_
*1621 _0658_
*1622 _0659_
*1623 _0660_
*1624 _0661_
*1625 _0662_
*1626 _0663_
*1627 _0664_
*1628 _0665_
*1629 _0666_
*1630 _0667_
*1631 _0668_
*1632 _0669_
*1633 _0670_
*1634 _0671_
*1635 _0672_
*1636 _0673_
*1637 _0674_
*1638 _0675_
*1639 _0676_
*1640 _0677_
*1641 _0678_
*1642 _0679_
*1643 _0680_
*1644 _0681_
*1645 _0682_
*1646 _0683_
*1647 _0684_
*1648 _0685_
*1649 _0686_
*1650 _0687_
*1651 _0688_
*1652 _0689_
*1653 _0690_
*1654 _0691_
*1655 _0692_
*1656 _0693_
*1657 _0694_
*1658 _0695_
*1659 _0696_
*1660 _0697_
*1661 _0698_
*1662 _0699_
*1663 _0700_
*1664 _0701_
*1665 _0702_
*1666 _0703_
*1667 _0704_
*1668 _0705_
*1669 _0706_
*1670 _0707_
*1671 _0708_
*1672 _0709_
*1673 _0710_
*1674 _0711_
*1675 _0712_
*1676 _0713_
*1677 _0714_
*1678 _0715_
*1679 _0716_
*1680 _0717_
*1681 _0718_
*1682 _0719_
*1683 _0720_
*1684 _0721_
*1685 _0722_
*1686 _0723_
*1687 _0724_
*1688 _0725_
*1689 _0726_
*1690 _0727_
*1691 _0728_
*1692 _0729_
*1693 _0730_
*1694 _0731_
*1695 _0732_
*1696 _0733_
*1697 _0734_
*1698 _0735_
*1699 _0736_
*1700 _0737_
*1701 _0738_
*1702 _0739_
*1703 _0740_
*1704 _0741_
*1705 _0742_
*1706 _0743_
*1707 _0744_
*1708 _0745_
*1709 _0746_
*1710 _0747_
*1711 _0748_
*1712 _0749_
*1713 _0750_
*1714 _0751_
*1715 _0752_
*1716 _0753_
*1717 _0754_
*1718 _0755_
*1719 _0756_
*1720 _0757_
*1721 _0758_
*1722 _0759_
*1723 _0760_
*1724 _0761_
*1725 _0762_
*1726 _0763_
*1727 _0764_
*1728 _0765_
*1729 _0766_
*1730 _0767_
*1731 _0768_
*1732 _0769_
*1733 _0770_
*1734 _0771_
*1735 _0772_
*1736 _0773_
*1737 _0774_
*1738 _0775_
*1739 _0776_
*1740 _0777_
*1741 _0778_
*1742 _0779_
*1743 _0780_
*1744 _0781_
*1745 _0782_
*1746 _0783_
*1747 _0784_
*1748 _0785_
*1749 _0786_
*1750 _0787_
*1751 _0788_
*1752 _0789_
*1753 _0790_
*1754 _0791_
*1755 _0792_
*1756 _0793_
*1757 _0794_
*1758 _0795_
*1759 _0796_
*1760 _0797_
*1761 _0798_
*1762 _0799_
*1763 _0800_
*1764 _0801_
*1765 _0802_
*1766 _0803_
*1767 _0804_
*1768 _0805_
*1769 _0806_
*1770 _0807_
*1771 _0808_
*1772 _0809_
*1773 _0810_
*1774 _0811_
*1775 _0812_
*1776 _0813_
*1777 _0814_
*1778 _0815_
*1779 _0816_
*1780 _0817_
*1781 _0818_
*1782 _0819_
*1783 _0820_
*1784 _0821_
*1785 _0822_
*1786 _0823_
*1787 _0824_
*1788 _0825_
*1789 _0826_
*1790 _0827_
*1791 _0828_
*1792 _0829_
*1793 _0830_
*1794 _0831_
*1795 _0832_
*1796 _0833_
*1797 _0834_
*1798 _0835_
*1799 _0836_
*1800 _0837_
*1801 _0838_
*1802 _0839_
*1803 _0840_
*1804 _0841_
*1805 _0842_
*1806 _0843_
*1807 clknet_0_wb_clk_i
*1808 clknet_4_0_0_wb_clk_i